# File generated by Flopy version 3.9.1 on 02/11/2026 at 07:58:48.
BEGIN options
  BUDGET  FILEOUT  quadtree_caseC.cbc
  HEAD  FILEOUT  quadtree_caseC.hds
END options

BEGIN period  1
  SAVE  HEAD  LAST
  SAVE  BUDGET  LAST
  PRINT  BUDGET  LAST
END period  1

