# File generated by Flopy version 3.9.1 on 04/12/2026 at 01:12:04.
BEGIN options
END options

BEGIN timing
  TDIS6  DISU_model.tdis
END timing

BEGIN models
  gwf6  DISU_model.nam  DISU_model
END models

BEGIN exchanges
END exchanges

BEGIN solutiongroup  1
  ims6  DISU_model.ims  DISU_model
END solutiongroup  1

