# File generated by Flopy version 3.9.1 on 02/12/2026 at 01:01:40.
BEGIN options
  FIXED_CELL
  PRINT_FLOWS
  SAVE_FLOWS
END options

BEGIN dimensions
  MAXBOUND  21123
END dimensions

BEGIN period  1
  1 1.02255805E-08
  2 1.01843708E-08
  3 1.02103047E-08
  4 1.02478982E-08
  5 1.01354807E-08
  6 1.01339278E-08
  7 1.00899472E-08
  8 1.00543249E-08
  9 1.00075659E-08
  10 1.01750231E-08
  11 1.01978335E-08
  12 1.02519004E-08
  13 1.03352111E-08
  14 1.00800111E-08
  15 1.01044480E-08
  16 9.99703956E-09
  17 1.00231095E-08
  18 1.01622418E-08
  19 1.02511343E-08
  20 1.00846373E-08
  21 1.01791029E-08
  22 1.04448217E-08
  23 1.05771017E-08
  24 1.03678368E-08
  25 1.05083154E-08
  26 1.03028512E-08
  27 1.04514237E-08
  28 1.06681067E-08
  29 1.08426234E-08
  30 1.06199207E-08
  31 1.08033466E-08
  32 1.11006940E-08
  33 1.10669050E-08
  34 1.12786560E-08
  35 1.14925093E-08
  36 1.17050220E-08
  37 1.19134020E-08
  38 1.21154717E-08
  39 1.23096046E-08
  40 1.24946475E-08
  41 1.26698405E-08
  42 1.28347390E-08
  43 1.29891444E-08
  44 1.31094329E-08
  45 1.32426984E-08
  46 1.33658475E-08
  47 1.34791542E-08
  48 1.35829312E-08
  49 1.11228252E-08
  50 1.13813302E-08
  51 1.11561899E-08
  52 1.06849783E-08
  53 1.05112418E-08
  54 1.03411433E-08
  55 1.04894640E-08
  56 1.03116623E-08
  57 1.09027758E-08
  58 1.06886941E-08
  59 1.09313843E-08
  60 1.07119278E-08
  61 1.04862108E-08
  62 1.03015038E-08
  63 1.05036784E-08
  64 1.03131298E-08
  65 1.01941032E-08
  66 1.00753803E-08
  67 1.01575475E-08
  68 1.00328351E-08
  69 9.98953956E-09
  70 9.94004688E-09
  71 9.94251642E-09
  72 9.89039857E-09
  73 1.01409663E-08
  74 1.00107609E-08
  75 1.01470622E-08
  76 1.00120617E-08
  77 9.91630340E-09
  78 9.86174359E-09
  79 9.91395257E-09
  80 9.85721889E-09
  81 9.92893702E-09
  82 9.95661113E-09
  83 9.87872245E-09
  84 9.90792920E-09
  85 1.00218024E-08
  86 1.01217158E-08
  87 9.97662006E-09
  88 1.00817172E-08
  89 9.84953161E-09
  90 9.88015021E-09
  91 9.84451687E-09
  92 9.87637180E-09
  93 9.95206847E-09
  94 1.00619251E-08
  95 9.95112458E-09
  96 1.00651386E-08
  97 1.02523142E-08
  98 1.04086998E-08
  99 1.02187929E-08
  100 1.03825049E-08
  101 1.05855272E-08
  102 1.08326566E-08
  103 1.05670627E-08
  104 1.08201200E-08
  105 1.02049032E-08
  106 1.03752223E-08
  107 1.02132217E-08
  108 1.03891758E-08
  109 1.06073664E-08
  110 1.08256543E-08
  111 1.06271909E-08
  112 1.08510710E-08
  113 1.10466838E-08
  114 1.12663733E-08
  115 1.10417480E-08
  116 1.12684412E-08
  117 1.14874508E-08
  118 1.17063628E-08
  119 1.14957613E-08
  120 1.17200692E-08
  121 1.10537577E-08
  122 1.12862707E-08
  123 1.10842520E-08
  124 1.13211467E-08
  125 1.15186222E-08
  126 1.17471166E-08
  127 1.15570884E-08
  128 1.17883569E-08
  129 1.19202720E-08
  130 1.21270058E-08
  131 1.19385055E-08
  132 1.21489229E-08
  133 1.23249786E-08
  134 1.25131010E-08
  135 1.23497922E-08
  136 1.25400993E-08
  137 1.19688971E-08
  138 1.21818614E-08
  139 1.20121238E-08
  140 1.22263504E-08
  141 1.23845515E-08
  142 1.25760383E-08
  143 1.24296627E-08
  144 1.26212234E-08
  145 1.26906887E-08
  146 1.28573774E-08
  147 1.27192436E-08
  148 1.28869456E-08
  149 1.30130476E-08
  150 1.31345850E-08
  151 1.30207192E-08
  152 1.31652687E-08
  153 1.27558102E-08
  154 1.29236742E-08
  155 1.28006125E-08
  156 1.29677226E-08
  157 1.30576001E-08
  158 1.32016073E-08
  159 1.31009417E-08
  160 1.32436704E-08
  161 1.32682691E-08
  162 1.33915113E-08
  163 1.32987824E-08
  164 1.34215860E-08
  165 1.35046367E-08
  166 1.36080012E-08
  167 1.35340522E-08
  168 1.36365760E-08
  169 1.33343241E-08
  170 1.34561282E-08
  171 1.33749335E-08
  172 1.34951543E-08
  173 1.35674347E-08
  174 1.36686727E-08
  175 1.36047841E-08
  176 1.37042796E-08
  177 1.37019729E-08
  178 1.37869192E-08
  179 1.37295568E-08
  180 1.38133865E-08
  181 1.38884405E-08
  182 1.39550736E-08
  183 1.37602680E-08
  184 1.38426318E-08
  185 1.37940869E-08
  186 1.38746312E-08
  187 1.39161533E-08
  188 1.39811959E-08
  189 1.39463100E-08
  190 1.40094903E-08
  191 1.40380953E-08
  192 1.40871609E-08
  193 1.40645081E-08
  194 1.41116691E-08
  195 1.41512519E-08
  196 1.41835123E-08
  197 1.39619426E-08
  198 1.39545523E-08
  199 1.38736166E-08
  200 1.39435665E-08
  201 1.38931336E-08
  202 1.38510759E-08
  203 1.38232842E-08
  204 1.38735920E-08
  205 1.38489114E-08
  206 1.37896931E-08
  207 1.38185420E-08
  208 1.37819248E-08
  209 1.37384908E-08
  210 1.36876610E-08
  211 1.28327235E-08
  212 1.25048174E-08
  213 1.23211436E-08
  214 1.16581001E-08
  215 1.19433572E-08
  216 1.17288909E-08
  217 1.14351213E-08
  218 1.12076091E-08
  219 1.15060950E-08
  220 1.12780537E-08
  221 1.20272478E-08
  222 1.18154192E-08
  223 1.21250425E-08
  224 1.19177434E-08
  225 1.15947362E-08
  226 1.13681938E-08
  227 1.17012179E-08
  228 1.14783448E-08
  229 1.09796740E-08
  230 1.07564239E-08
  231 1.10488591E-08
  232 1.08236610E-08
  233 1.05438944E-08
  234 1.03488443E-08
  235 1.06086138E-08
  236 1.04106771E-08
  237 1.11398234E-08
  238 1.09147619E-08
  239 1.12530538E-08
  240 1.10304102E-08
  241 1.06992139E-08
  242 1.05002628E-08
  243 1.08165940E-08
  244 1.06187243E-08
  245 1.01783934E-08
  246 1.00395106E-08
  247 1.02372459E-08
  248 1.00956127E-08
  249 9.93839686E-09
  250 9.87984990E-09
  251 9.99230666E-09
  252 9.93240363E-09
  253 1.03254983E-08
  254 1.01824588E-08
  255 1.04444895E-08
  256 1.03015782E-08
  257 1.00970157E-08
  258 9.86672152E-09
  259 9.89957899E-09
  260 9.91893214E-09
  261 9.95249948E-09
  262 1.00547397E-08
  263 1.00035172E-08
  264 1.00374455E-08
  265 1.01222632E-08
  266 1.01561539E-08
  267 1.02279333E-08
  268 1.03605015E-08
  269 1.06701202E-08
  270 1.08979894E-08
  271 1.07377696E-08
  272 1.09677504E-08
  273 1.05730103E-08
  274 1.08313647E-08
  275 1.10613316E-08
  276 1.09516460E-08
  277 1.11792695E-08
  278 1.11345788E-08
  279 1.13741687E-08
  280 1.12058231E-08
  281 1.14461914E-08
  282 1.16120388E-08
  283 1.18444782E-08
  284 1.16841280E-08
  285 1.19159662E-08
  286 1.12987359E-08
  287 1.15377677E-08
  288 1.14136728E-08
  289 1.16490996E-08
  290 1.17737409E-08
  291 1.20030684E-08
  292 1.18809558E-08
  293 1.21057666E-08
  294 1.20687125E-08
  295 1.22827836E-08
  296 1.21390095E-08
  297 1.23513952E-08
  298 1.24854111E-08
  299 1.26758534E-08
  300 1.25519427E-08
  301 1.27400065E-08
  302 1.22231535E-08
  303 1.24322397E-08
  304 1.23210545E-08
  305 1.25251769E-08
  306 1.26292494E-08
  307 1.28136293E-08
  308 1.27171577E-08
  309 1.28965290E-08
  310 1.28537814E-08
  311 1.29981345E-08
  312 1.29153441E-08
  313 1.30572392E-08
  314 1.31507837E-08
  315 1.32914678E-08
  316 1.32070906E-08
  317 1.33449456E-08
  318 1.29651159E-08
  319 1.31235948E-08
  320 1.30432876E-08
  321 1.31970010E-08
  322 1.32697475E-08
  323 1.34039833E-08
  324 1.33385579E-08
  325 1.34683927E-08
  326 1.34205988E-08
  327 1.35386375E-08
  328 1.34712545E-08
  329 1.35865061E-08
  330 1.36460637E-08
  331 1.37433543E-08
  332 1.36911993E-08
  333 1.37858229E-08
  334 1.35267794E-08
  335 1.36386416E-08
  336 1.35869960E-08
  337 1.36948791E-08
  338 1.37400779E-08
  339 1.38315797E-08
  340 1.37925480E-08
  341 1.38804870E-08
  342 1.38309687E-08
  343 1.39093394E-08
  344 1.38708420E-08
  345 1.39466898E-08
  346 1.39788669E-08
  347 1.40399169E-08
  348 1.40137633E-08
  349 1.40724214E-08
  350 1.39136095E-08
  351 1.39865941E-08
  352 1.39591478E-08
  353 1.40289429E-08
  354 1.40509206E-08
  355 1.41069355E-08
  356 1.40902433E-08
  357 1.41433774E-08
  358 1.40928204E-08
  359 1.41378757E-08
  360 1.41229856E-08
  361 1.41657423E-08
  362 1.41753515E-08
  363 1.42054919E-08
  364 1.42009468E-08
  365 1.42288279E-08
  366 1.41549459E-08
  367 1.41952223E-08
  368 1.41886331E-08
  369 1.42262606E-08
  370 1.42280023E-08
  371 1.42534964E-08
  372 1.42564764E-08
  373 1.42794694E-08
  374 1.42285217E-08
  375 1.42446537E-08
  376 1.42495943E-08
  377 1.42634417E-08
  378 1.42705614E-08
  379 1.42718941E-08
  380 1.42833714E-08
  381 1.42954070E-08
  382 1.43044429E-08
  383 1.42880998E-08
  384 1.42862556E-08
  385 1.43067265E-08
  386 1.43024123E-08
  387 1.42780309E-08
  388 1.42916720E-08
  389 1.42747062E-08
  390 1.42517576E-08
  391 1.38683222E-08
  392 1.38826114E-08
  393 1.38887972E-08
  394 1.39337913E-08
  395 1.39415477E-08
  396 1.39085219E-08
  397 1.39161847E-08
  398 1.38959866E-08
  399 1.39042371E-08
  400 1.39245591E-08
  401 1.39335303E-08
  402 1.39135219E-08
  403 1.39237295E-08
  404 1.39603188E-08
  405 1.39494139E-08
  406 1.39571351E-08
  407 1.39655936E-08
  408 1.39697931E-08
  409 1.39643944E-08
  410 1.39708190E-08
  411 1.39429078E-08
  412 1.39524284E-08
  413 1.39346652E-08
  414 1.39460563E-08
  415 1.39617629E-08
  416 1.39705229E-08
  417 1.39575590E-08
  418 1.39687670E-08
  419 1.39725115E-08
  420 1.39733027E-08
  421 1.39759878E-08
  422 1.39794382E-08
  423 1.39716869E-08
  424 1.39671573E-08
  425 1.39806749E-08
  426 1.39791765E-08
  427 1.39782696E-08
  428 1.39845225E-08
  429 1.39792215E-08
  430 1.39884217E-08
  431 1.39887688E-08
  432 1.39904719E-08
  433 1.39958356E-08
  434 1.40009097E-08
  435 1.39591856E-08
  436 1.39126038E-08
  437 1.39744032E-08
  438 1.39318837E-08
  439 1.38962777E-08
  440 1.38749431E-08
  441 1.39189856E-08
  442 1.39012263E-08
  443 1.39890793E-08
  444 1.39508299E-08
  445 1.40030783E-08
  446 1.39693017E-08
  447 1.39473835E-08
  448 1.38480516E-08
  449 1.38150489E-08
  450 1.38780611E-08
  451 1.38489441E-08
  452 1.37753747E-08
  453 1.37284616E-08
  454 1.38133276E-08
  455 1.37706613E-08
  456 1.39084055E-08
  457 1.38834335E-08
  458 1.39389191E-08
  459 1.39183378E-08
  460 1.38521585E-08
  461 1.38140519E-08
  462 1.38916710E-08
  463 1.38584168E-08
  464 1.36737337E-08
  465 1.36106056E-08
  466 1.37203898E-08
  467 1.36619512E-08
  468 1.35947761E-08
  469 1.35182875E-08
  470 1.37685850E-08
  471 1.37152266E-08
  472 1.38180786E-08
  473 1.37701628E-08
  474 1.36534412E-08
  475 1.35826882E-08
  476 1.37141756E-08
  477 1.36496217E-08
  478 1.32620932E-08
  479 1.34319044E-08
  480 1.33350487E-08
  481 1.31821688E-08
  482 1.30566500E-08
  483 1.32615317E-08
  484 1.31426622E-08
  485 1.35024237E-08
  486 1.34121058E-08
  487 1.35760049E-08
  488 1.34928314E-08
  489 1.33457532E-08
  490 1.32343981E-08
  491 1.34343372E-08
  492 1.33312961E-08
  493 1.29185117E-08
  494 1.27674087E-08
  495 1.30115545E-08
  496 1.28678549E-08
  497 1.26031970E-08
  498 1.24260271E-08
  499 1.27113931E-08
  500 1.25422717E-08
  501 1.31113151E-08
  502 1.29761593E-08
  503 1.32171586E-08
  504 1.30916055E-08
  505 1.28287513E-08
  506 1.26691618E-08
  507 1.29544661E-08
  508 1.28057952E-08
  509 1.22364637E-08
  510 1.20356298E-08
  511 1.23609816E-08
  512 1.21685433E-08
  513 1.18253713E-08
  514 1.16084278E-08
  515 1.19666710E-08
  516 1.17579454E-08
  517 1.24978202E-08
  518 1.23156518E-08
  519 1.26459753E-08
  520 1.24758446E-08
  521 1.21133103E-08
  522 1.13885868E-08
  523 1.11707824E-08
  524 1.15459741E-08
  525 1.13355016E-08
  526 1.09451552E-08
  527 1.17229961E-08
  528 1.13296430E-08
  529 1.11489723E-08
  530 1.15511807E-08
  531 1.13809830E-08
  532 1.06079160E-08
  533 1.04044982E-08
  534 1.09889085E-08
  535 1.08568822E-08
  536 1.12299645E-08
  537 1.11052101E-08
  538 1.07597264E-08
  539 1.07028722E-08
  540 1.10132614E-08
  541 1.09593365E-08
  542 1.03772309E-08
  543 1.05314771E-08
  544 1.06896247E-08
  545 1.07206931E-08
  546 1.09466237E-08
  547 1.09758202E-08
  548 1.10130366E-08
  549 1.08789096E-08
  550 1.12909224E-08
  551 1.11011497E-08
  552 1.12769832E-08
  553 1.13454207E-08
  554 1.15109829E-08
  555 1.14712469E-08
  556 1.16767912E-08
  557 1.16937480E-08
  558 1.18869561E-08
  559 1.17400976E-08
  560 1.20055161E-08
  561 1.22237569E-08
  562 1.21468175E-08
  563 1.23564413E-08
  564 1.20861744E-08
  565 1.23039087E-08
  566 1.25029324E-08
  567 1.24755092E-08
  568 1.26620696E-08
  569 1.24323807E-08
  570 1.26298627E-08
  571 1.25565536E-08
  572 1.27457473E-08
  573 1.29543385E-08
  574 1.26927543E-08
  575 1.28720823E-08
  576 1.28399386E-08
  577 1.30079340E-08
  578 1.31602945E-08
  579 1.31292183E-08
  580 1.32771590E-08
  581 1.32224745E-08
  582 1.33636742E-08
  583 1.34132442E-08
  584 1.35379181E-08
  585 1.34934495E-08
  586 1.36122389E-08
  587 1.34409195E-08
  588 1.36787437E-08
  589 1.36516714E-08
  590 1.37550078E-08
  591 1.37205189E-08
  592 1.38187730E-08
  593 1.38484204E-08
  594 1.39323765E-08
  595 1.39074699E-08
  596 1.39870502E-08
  597 1.38768580E-08
  598 1.39694381E-08
  599 1.40442830E-08
  600 1.40340358E-08
  601 1.41038244E-08
  602 1.40073081E-08
  603 1.40736062E-08
  604 1.40579176E-08
  605 1.41204345E-08
  606 1.41316191E-08
  607 1.41816518E-08
  608 1.41749201E-08
  609 1.42216507E-08
  610 1.41107813E-08
  611 1.41692599E-08
  612 1.41656835E-08
  613 1.42198979E-08
  614 1.42200033E-08
  615 1.42632542E-08
  616 1.42667122E-08
  617 1.43063312E-08
  618 1.42239681E-08
  619 1.42587939E-08
  620 1.42608618E-08
  621 1.42927513E-08
  622 1.42863213E-08
  623 1.43067145E-08
  624 1.43174835E-08
  625 1.43351950E-08
  626 1.42992157E-08
  627 1.43280540E-08
  628 1.43389219E-08
  629 1.43646160E-08
  630 1.43499031E-08
  631 1.43648697E-08
  632 1.43835146E-08
  633 1.43956925E-08
  634 1.43201160E-08
  635 1.43266552E-08
  636 1.43460015E-08
  637 1.43500054E-08
  638 1.43264567E-08
  639 1.43196516E-08
  640 1.43473052E-08
  641 1.43380064E-08
  642 1.43730402E-08
  643 1.43744886E-08
  644 1.44012053E-08
  645 1.44000969E-08
  646 1.43692854E-08
  647 1.43575091E-08
  648 1.43924087E-08
  649 1.43781910E-08
  650 1.43063889E-08
  651 1.42868481E-08
  652 1.43222335E-08
  653 1.43001435E-08
  654 1.42612539E-08
  655 1.42298898E-08
  656 1.42719408E-08
  657 1.42378923E-08
  658 1.43392584E-08
  659 1.43146661E-08
  660 1.43575153E-08
  661 1.43304891E-08
  662 1.42839147E-08
  663 1.42472528E-08
  664 1.42972720E-08
  665 1.42580926E-08
  666 1.41983433E-08
  667 1.41537319E-08
  668 1.42050117E-08
  669 1.41576213E-08
  670 1.42132664E-08
  671 1.41632133E-08
  672 1.41056241E-08
  673 1.40496867E-08
  674 1.41084725E-08
  675 1.40497150E-08
  676 1.39877502E-08
  677 1.39249600E-08
  678 1.38598282E-08
  679 1.33707041E-08
  680 1.33975128E-08
  681 1.33482913E-08
  682 1.33223846E-08
  683 1.33569790E-08
  684 1.33786968E-08
  685 1.37934268E-08
  686 1.33869402E-08
  687 1.37906586E-08
  688 1.38096853E-08
  689 1.38197865E-08
  690 1.38405101E-08
  691 1.38271073E-08
  692 1.38321833E-08
  693 1.38054881E-08
  694 1.38140892E-08
  695 1.38012028E-08
  696 1.38081062E-08
  697 1.38197861E-08
  698 1.38231637E-08
  699 1.38119717E-08
  700 1.38134358E-08
  701 1.38454033E-08
  702 1.38491260E-08
  703 1.38355646E-08
  704 1.38377572E-08
  705 1.38525468E-08
  706 1.38557467E-08
  707 1.38397930E-08
  708 1.38417473E-08
  709 1.38248252E-08
  710 1.38253807E-08
  711 1.38131587E-08
  712 1.38118109E-08
  713 1.38257337E-08
  714 1.38262503E-08
  715 1.38103199E-08
  716 1.38091956E-08
  717 1.38591569E-08
  718 1.38631593E-08
  719 1.38441032E-08
  720 1.38472917E-08
  721 1.38680744E-08
  722 1.38741494E-08
  723 1.38516769E-08
  724 1.38575433E-08
  725 1.38273752E-08
  726 1.38295929E-08
  727 1.38089021E-08
  728 1.38099824E-08
  729 1.38333155E-08
  730 1.38388687E-08
  731 1.38129021E-08
  732 1.38180313E-08
  733 1.38815500E-08
  734 1.38903524E-08
  735 1.38650857E-08
  736 1.38744010E-08
  737 1.39005407E-08
  738 1.39120057E-08
  739 1.38854843E-08
  740 1.38982283E-08
  741 1.38410412E-08
  742 1.38658320E-08
  743 1.39245478E-08
  744 1.39378826E-08
  745 1.39124267E-08
  746 1.39277813E-08
  747 1.39555742E-08
  748 1.38993159E-08
  749 1.39389314E-08
  750 1.39849713E-08
  751 1.40097521E-08
  752 1.39807753E-08
  753 1.40201292E-08
  754 1.40252911E-08
  755 1.39953072E-08
  756 1.40519990E-08
  757 1.40411921E-08
  758 1.39785542E-08
  759 1.39398475E-08
  760 1.40436353E-08
  761 1.40260776E-08
  762 1.38755446E-08
  763 1.37766606E-08
  764 1.37187252E-08
  765 1.38405670E-08
  766 1.37896199E-08
  767 1.39854833E-08
  768 1.39192890E-08
  769 1.36565899E-08
  770 1.35307846E-08
  771 1.38252693E-08
  772 1.37370687E-08
  773 1.33323294E-08
  774 1.30929070E-08
  775 1.35830139E-08
  776 1.33960637E-08
  777 1.28132752E-08
  778 1.24996471E-08
  779 1.31773739E-08
  780 1.29321423E-08
  781 1.21678187E-08
  782 1.17948554E-08
  783 1.16373387E-08
  784 1.20579721E-08
  785 1.19151282E-08
  786 1.26727575E-08
  787 1.23374254E-08
  788 1.22109659E-08
  789 1.26298237E-08
  790 1.25211321E-08
  791 1.14973966E-08
  792 1.13816409E-08
  793 1.17881025E-08
  794 1.16829154E-08
  795 1.12961973E-08
  796 1.12459685E-08
  797 1.16051614E-08
  798 1.15593311E-08
  799 1.22137554E-08
  800 1.20859859E-08
  801 1.12339622E-08
  802 1.12608504E-08
  803 1.15481916E-08
  804 1.15723762E-08
  805 1.13832364E-08
  806 1.14847625E-08
  807 1.16974119E-08
  808 1.17893515E-08
  809 1.21437351E-08
  810 1.20327733E-08
  811 1.21139580E-08
  812 1.23846092E-08
  813 1.24541055E-08
  814 1.16153709E-08
  815 1.17685280E-08
  816 1.19077099E-08
  817 1.20465541E-08
  818 1.19375451E-08
  819 1.21161599E-08
  820 1.21998197E-08
  821 1.23618392E-08
  822 1.22186205E-08
  823 1.23415328E-08
  824 1.25439206E-08
  825 1.26496162E-08
  826 1.26871249E-08
  827 1.24990281E-08
  828 1.26600422E-08
  829 1.28324480E-08
  830 1.28556808E-08
  831 1.30124577E-08
  832 1.29614130E-08
  833 1.32316931E-08
  834 1.31539492E-08
  835 1.32793279E-08
  836 1.34147246E-08
  837 1.34180350E-08
  838 1.35416728E-08
  839 1.34826279E-08
  840 1.36884224E-08
  841 1.36544548E-08
  842 1.38585405E-08
  843 1.38834131E-08
  844 1.40498617E-08
  845 1.40285314E-08
  846 1.41669323E-08
  847 1.41889311E-08
  848 1.43019734E-08
  849 1.42759426E-08
  850 1.43572531E-08
  851 1.43901491E-08
  852 1.44542580E-08
  853 1.44119968E-08
  854 1.44407906E-08
  855 1.44946796E-08
  856 1.45113867E-08
  857 1.44438475E-08
  858 1.44211710E-08
  859 1.45040274E-08
  860 1.44720939E-08
  861 1.43770529E-08
  862 1.43476836E-08
  863 1.43979154E-08
  864 1.43663153E-08
  865 1.43121071E-08
  866 1.42705310E-08
  867 1.43285090E-08
  868 1.42846821E-08
  869 1.44152045E-08
  870 1.43465588E-08
  871 1.43006511E-08
  872 1.43663260E-08
  873 1.43185303E-08
  874 1.42232538E-08
  875 1.41706832E-08
  876 1.42351147E-08
  877 1.41802008E-08
  878 1.41133532E-08
  879 1.40519370E-08
  880 1.41204669E-08
  881 1.40565861E-08
  882 1.42489801E-08
  883 1.41919252E-08
  884 1.42649673E-08
  885 1.42059997E-08
  886 1.41300029E-08
  887 1.40638836E-08
  888 1.41421331E-08
  889 1.40756988E-08
  890 1.39872551E-08
  891 1.39219240E-08
  892 1.39909314E-08
  893 1.39217191E-08
  894 1.38539958E-08
  895 1.37859957E-08
  896 1.38511972E-08
  897 1.37806275E-08
  898 1.39961939E-08
  899 1.39246397E-08
  900 1.40045802E-08
  901 1.39309579E-08
  902 1.38517635E-08
  903 1.37788589E-08
  904 1.38560022E-08
  905 1.37810330E-08
  906 1.37192416E-08
  907 1.37113725E-08
  908 1.36448514E-08
  909 1.35824875E-08
  910 1.35256479E-08
  911 1.37073280E-08
  912 1.36386357E-08
  913 1.37074860E-08
  914 1.36368660E-08
  915 1.35742542E-08
  916 1.35155998E-08
  917 1.35706881E-08
  918 1.35104120E-08
  919 1.34639681E-08
  920 1.34204737E-08
  921 1.34573741E-08
  922 1.34127231E-08
  923 1.33860000E-08
  924 1.33773675E-08
  925 1.33519378E-08
  926 1.33367678E-08
  927 1.33318967E-08
  928 1.33370883E-08
  929 1.33025020E-08
  930 1.32287125E-08
  931 1.32683940E-08
  932 1.33133167E-08
  933 1.32800878E-08
  934 1.33248439E-08
  935 1.33317947E-08
  936 1.33660500E-08
  937 1.33417300E-08
  938 1.33755161E-08
  939 1.33954356E-08
  940 1.37880157E-08
  941 1.34041871E-08
  942 1.37855359E-08
  943 1.33522132E-08
  944 1.33853922E-08
  945 1.33632710E-08
  946 1.33956983E-08
  947 1.37734901E-08
  948 1.37832677E-08
  949 1.37735219E-08
  950 1.37812733E-08
  951 1.37968511E-08
  952 1.38018521E-08
  953 1.37924654E-08
  954 1.37953537E-08
  955 1.37986999E-08
  956 1.37860871E-08
  957 1.37777415E-08
  958 1.37916618E-08
  959 1.37824938E-08
  960 1.37601670E-08
  961 1.37406536E-08
  962 1.37770694E-08
  963 1.37800560E-08
  964 1.37274859E-08
  965 1.37254689E-08
  966 1.37949688E-08
  967 1.38232376E-08
  968 1.37393776E-08
  969 1.37710945E-08
  970 1.38698391E-08
  971 1.39697974E-08
  972 1.40250036E-08
  973 1.39519433E-08
  974 1.40242532E-08
  975 1.41100383E-08
  976 1.41485458E-08
  977 1.41432346E-08
  978 1.39903772E-08
  979 1.39507529E-08
  980 1.41650529E-08
  981 1.41664962E-08
  982 1.38105743E-08
  983 1.37447722E-08
  984 1.39361858E-08
  985 1.38836925E-08
  986 1.36724797E-08
  987 1.35938879E-08
  988 1.38259316E-08
  989 1.37631495E-08
  990 1.41092147E-08
  991 1.40377132E-08
  992 1.35624626E-08
  993 1.33930476E-08
  994 1.39547058E-08
  995 1.37745312E-08
  996 1.37177084E-08
  997 1.39992095E-08
  998 1.39630102E-08
  999 1.32150444E-08
  1000 1.29316197E-08
  1001 1.28417227E-08
  1002 1.32392359E-08
  1003 1.31687939E-08
  1004 1.36603604E-08
  1005 1.36036961E-08
  1006 1.39269210E-08
  1007 1.38916769E-08
  1008 1.35491751E-08
  1009 1.34984899E-08
  1010 1.38581111E-08
  1011 1.38271475E-08
  1012 1.29019887E-08
  1013 1.28144869E-08
  1014 1.36111257E-08
  1015 1.33881327E-08
  1016 1.34689536E-08
  1017 1.37597296E-08
  1018 1.38492277E-08
  1019 1.28906783E-08
  1020 1.27479734E-08
  1021 1.28051017E-08
  1022 1.31178871E-08
  1023 1.31622265E-08
  1024 1.36553788E-08
  1025 1.34895202E-08
  1026 1.35208994E-08
  1027 1.38583398E-08
  1028 1.38768177E-08
  1029 1.28792358E-08
  1030 1.29667890E-08
  1031 1.32201687E-08
  1032 1.32890186E-08
  1033 1.32606750E-08
  1034 1.35624507E-08
  1035 1.36123882E-08
  1036 1.39020671E-08
  1037 1.39332087E-08
  1038 1.38443728E-08
  1039 1.34526457E-08
  1040 1.36451840E-08
  1041 1.39512591E-08
  1042 1.39265202E-08
  1043 1.39924622E-08
  1044 1.41439994E-08
  1045 1.41741060E-08
  1046 1.38094651E-08
  1047 1.39747105E-08
  1048 1.40396155E-08
  1049 1.41021801E-08
  1050 1.42210012E-08
  1051 1.42674318E-08
  1052 1.42636246E-08
  1053 1.42963091E-08
  1054 1.44766277E-08
  1055 1.45884264E-08
  1056 1.46263023E-08
  1057 1.45822775E-08
  1058 1.44634593E-08
  1059 1.43878656E-08
  1060 1.43383959E-08
  1061 1.44112150E-08
  1062 1.43603037E-08
  1063 1.45176983E-08
  1064 1.44240772E-08
  1065 1.42831746E-08
  1066 1.42225473E-08
  1067 1.43036779E-08
  1068 1.42416651E-08
  1069 1.41570063E-08
  1070 1.40891590E-08
  1071 1.41765301E-08
  1072 1.41058010E-08
  1073 1.43077083E-08
  1074 1.41975322E-08
  1075 1.41257335E-08
  1076 1.42215416E-08
  1077 1.41490212E-08
  1078 1.40162999E-08
  1079 1.39409152E-08
  1080 1.40315265E-08
  1081 1.39547131E-08
  1082 1.38641877E-08
  1083 1.37874572E-08
  1084 1.38765504E-08
  1085 1.37983914E-08
  1086 1.40503906E-08
  1087 1.39725054E-08
  1088 1.40729735E-08
  1089 1.39943911E-08
  1090 1.38932683E-08
  1091 1.38140383E-08
  1092 1.39144587E-08
  1093 1.38345340E-08
  1094 1.37121865E-08
  1095 1.36399129E-08
  1096 1.37217185E-08
  1097 1.36480935E-08
  1098 1.35721878E-08
  1099 1.35105078E-08
  1100 1.35790958E-08
  1101 1.35162515E-08
  1102 1.37363091E-08
  1103 1.36616583E-08
  1104 1.37561132E-08
  1105 1.36807804E-08
  1106 1.35916844E-08
  1107 1.35279345E-08
  1108 1.36101438E-08
  1109 1.35457620E-08
  1110 1.34562439E-08
  1111 1.34105748E-08
  1112 1.34609597E-08
  1113 1.34144236E-08
  1114 1.33744310E-08
  1115 1.33484557E-08
  1116 1.33775924E-08
  1117 1.33511205E-08
  1118 1.34718283E-08
  1119 1.34245877E-08
  1120 1.34890675E-08
  1121 1.34412942E-08
  1122 1.33871764E-08
  1123 1.33602585E-08
  1124 1.34034163E-08
  1125 1.33761053E-08
  1126 1.33329856E-08
  1127 1.33280521E-08
  1128 1.33353475E-08
  1129 1.33302997E-08
  1130 1.33334027E-08
  1131 1.33485375E-08
  1132 1.33357120E-08
  1133 1.33510659E-08
  1134 1.33441770E-08
  1135 1.33389554E-08
  1136 1.33597079E-08
  1137 1.33542483E-08
  1138 1.33443206E-08
  1139 1.33597413E-08
  1140 1.33594496E-08
  1141 1.33747741E-08
  1142 1.33727556E-08
  1143 1.34052086E-08
  1144 1.33756380E-08
  1145 1.34085546E-08
  1146 1.34449521E-08
  1147 1.34488458E-08
  1148 1.34954959E-08
  1149 1.33844780E-08
  1150 1.34176392E-08
  1151 1.33994738E-08
  1152 1.34326466E-08
  1153 1.34582365E-08
  1154 1.35052359E-08
  1155 1.34732935E-08
  1156 1.35203699E-08
  1157 1.35474861E-08
  1158 1.36038302E-08
  1159 1.35576024E-08
  1160 1.36143347E-08
  1161 1.35728306E-08
  1162 1.36296655E-08
  1163 1.36744923E-08
  1164 1.37372126E-08
  1165 1.36899265E-08
  1166 1.37527447E-08
  1167 1.38017214E-08
  1168 1.38173412E-08
  1169 1.38830308E-08
  1170 1.39492215E-08
  1171 1.40154101E-08
  1172 1.31294243E-08
  1173 1.29980577E-08
  1174 1.30681674E-08
  1175 1.31437348E-08
  1176 1.30833971E-08
  1177 1.31596191E-08
  1178 1.31826623E-08
  1179 1.32412777E-08
  1180 1.31960944E-08
  1181 1.32549331E-08
  1182 1.32926732E-08
  1183 1.33371225E-08
  1184 1.33062029E-08
  1185 1.33501973E-08
  1186 1.32108415E-08
  1187 1.32697473E-08
  1188 1.32269904E-08
  1189 1.32857955E-08
  1190 1.33207361E-08
  1191 1.33641202E-08
  1192 1.33363393E-08
  1193 1.33789520E-08
  1194 1.33749352E-08
  1195 1.34064601E-08
  1196 1.33872443E-08
  1197 1.34177118E-08
  1198 1.37740884E-08
  1199 1.37796304E-08
  1200 1.37752797E-08
  1201 1.37784352E-08
  1202 1.34002454E-08
  1203 1.37696860E-08
  1204 1.34139962E-08
  1205 1.37748176E-08
  1206 1.37772032E-08
  1207 1.37778048E-08
  1208 1.37799851E-08
  1209 1.37778798E-08
  1210 1.37751285E-08
  1211 1.37550444E-08
  1212 1.37722583E-08
  1213 1.37614335E-08
  1214 1.37693010E-08
  1215 1.37551611E-08
  1216 1.37463043E-08
  1217 1.37279434E-08
  1218 1.37364896E-08
  1219 1.37144290E-08
  1220 1.37250156E-08
  1221 1.37126115E-08
  1222 1.36995882E-08
  1223 1.36894289E-08
  1224 1.36734329E-08
  1225 1.37075107E-08
  1226 1.36862328E-08
  1227 1.36902236E-08
  1228 1.36651976E-08
  1229 1.36653739E-08
  1230 1.36461984E-08
  1231 1.36407235E-08
  1232 1.36181815E-08
  1233 1.36706716E-08
  1234 1.36624197E-08
  1235 1.36306227E-08
  1236 1.36186723E-08
  1237 1.35989095E-08
  1238 1.35850364E-08
  1239 1.35923595E-08
  1240 1.36864844E-08
  1241 1.36982043E-08
  1242 1.36520782E-08
  1243 1.36639964E-08
  1244 1.37153829E-08
  1245 1.37378858E-08
  1246 1.36820609E-08
  1247 1.37061230E-08
  1248 1.36025054E-08
  1249 1.36413257E-08
  1250 1.37669425E-08
  1251 1.38416589E-08
  1252 1.37074586E-08
  1253 1.37848626E-08
  1254 1.38314037E-08
  1255 1.37590215E-08
  1256 1.38095614E-08
  1257 1.39132322E-08
  1258 1.39557659E-08
  1259 1.38976500E-08
  1260 1.39446323E-08
  1261 1.39988227E-08
  1262 1.40415708E-08
  1263 1.39923892E-08
  1264 1.40400392E-08
  1265 1.38809528E-08
  1266 1.39325045E-08
  1267 1.38634842E-08
  1268 1.39197047E-08
  1269 1.39850710E-08
  1270 1.40377172E-08
  1271 1.39771654E-08
  1272 1.40348750E-08
  1273 1.41065929E-08
  1274 1.41601844E-08
  1275 1.41175291E-08
  1276 1.42121908E-08
  1277 1.42584457E-08
  1278 1.42251147E-08
  1279 1.42768948E-08
  1280 1.42266241E-08
  1281 1.42786234E-08
  1282 1.42824407E-08
  1283 1.43580118E-08
  1284 1.43153155E-08
  1285 1.43271948E-08
  1286 1.44092511E-08
  1287 1.44179764E-08
  1288 1.44377224E-08
  1289 1.44800466E-08
  1290 1.45072263E-08
  1291 1.43373272E-08
  1292 1.43793593E-08
  1293 1.44551713E-08
  1294 1.44707598E-08
  1295 1.45326559E-08
  1296 1.45568559E-08
  1297 1.45850420E-08
  1298 1.45043585E-08
  1299 1.43411169E-08
  1300 1.43275106E-08
  1301 1.47103524E-08
  1302 1.47688388E-08
  1303 1.41901015E-08
  1304 1.41759202E-08
  1305 1.44476402E-08
  1306 1.44538912E-08
  1307 1.43118187E-08
  1308 1.48364832E-08
  1309 1.49066177E-08
  1310 1.43085055E-08
  1311 1.42292168E-08
  1312 1.42223989E-08
  1313 1.45857609E-08
  1314 1.45846639E-08
  1315 1.49667309E-08
  1316 1.50981600E-08
  1317 1.42185275E-08
  1318 1.42177504E-08
  1319 1.45818091E-08
  1320 1.45772807E-08
  1321 1.43970274E-08
  1322 1.50951333E-08
  1323 1.50606502E-08
  1324 1.44001626E-08
  1325 1.44130444E-08
  1326 1.50056675E-08
  1327 1.49458178E-08
  1328 1.44373598E-08
  1329 1.43578316E-08
  1330 1.43697702E-08
  1331 1.45499785E-08
  1332 1.45606863E-08
  1333 1.48942201E-08
  1334 1.47517330E-08
  1335 1.47454702E-08
  1336 1.49451985E-08
  1337 1.49229059E-08
  1338 1.43995498E-08
  1339 1.44301832E-08
  1340 1.45739082E-08
  1341 1.45892500E-08
  1342 1.45464330E-08
  1343 1.47428561E-08
  1344 1.47435578E-08
  1345 1.49053143E-08
  1346 1.48921510E-08
  1347 1.48154237E-08
  1348 1.47238257E-08
  1349 1.47772580E-08
  1350 1.48066024E-08
  1351 1.47921290E-08
  1352 1.47164376E-08
  1353 1.45636617E-08
  1354 1.43644520E-08
  1355 1.42272200E-08
  1356 1.44294887E-08
  1357 1.42933224E-08
  1358 1.40993030E-08
  1359 1.40204089E-08
  1360 1.41293503E-08
  1361 1.40505346E-08
  1362 1.39401722E-08
  1363 1.38599413E-08
  1364 1.39703891E-08
  1365 1.38902454E-08
  1366 1.41424377E-08
  1367 1.39842118E-08
  1368 1.37812061E-08
  1369 1.37055474E-08
  1370 1.38115782E-08
  1371 1.37359554E-08
  1372 1.36345730E-08
  1373 1.35698438E-08
  1374 1.36649741E-08
  1375 1.36001875E-08
  1376 1.38288873E-08
  1377 1.36885213E-08
  1378 1.35127962E-08
  1379 1.34646694E-08
  1380 1.35430273E-08
  1381 1.34947310E-08
  1382 1.34264433E-08
  1383 1.33987945E-08
  1384 1.34562791E-08
  1385 1.34283515E-08
  1386 1.35750756E-08
  1387 1.34981367E-08
  1388 1.33820746E-08
  1389 1.33763105E-08
  1390 1.34113044E-08
  1391 1.34051707E-08
  1392 1.33812272E-08
  1393 1.33962869E-08
  1394 1.34096821E-08
  1395 1.34243078E-08
  1396 1.34473146E-08
  1397 1.34407508E-08
  1398 1.34899145E-08
  1399 1.34828676E-08
  1400 1.34447412E-08
  1401 1.34587684E-08
  1402 1.34862302E-08
  1403 1.34995045E-08
  1404 1.34207405E-08