# File generated by Flopy version 3.9.1 on 02/10/2026 at 22:01:42.
BEGIN options
END options

BEGIN timing
  TDIS6  struc_caseC.tdis
END timing

BEGIN models
  gwf6  struc_caseC.nam  struc_caseC
END models

BEGIN exchanges
END exchanges

BEGIN solutiongroup  1
  ims6  struc_caseC.ims  struc_caseC
END solutiongroup  1

