# File generated by Flopy version 3.9.1 on 02/10/2026 at 22:01:42.
BEGIN options
END options

BEGIN packages
  DIS6  struc_caseC.dis  dis
  IC6  struc_caseC.ic  ic
  CHD6  struc_caseC.chd  chd
  NPF6  struc_caseC.npf  npf
  WEL6  struc_caseC.wel  well_casec
  RCH6  struc_caseC.rch  rch
  EVT6  struc_caseC.evt  evt
  OC6  struc_caseC.oc  oc
END packages

