# File generated by Flopy version 3.9.1 on 02/10/2026 at 22:14:47.
BEGIN options
END options

BEGIN timing
  TDIS6  voronoi_caseC.tdis
END timing

BEGIN models
  gwf6  voronoi_caseC.nam  voronoi_casec
END models

BEGIN exchanges
END exchanges

BEGIN solutiongroup  1
  ims6  voronoi_caseC.ims  voronoi_casec
END solutiongroup  1

