# File generated by Flopy version 3.9.1 on 02/10/2026 at 22:14:50.
BEGIN options
END options

BEGIN griddata
  strt  LAYERED
    INTERNAL  FACTOR  1.0
           2.47589043       2.47667047       2.49184665       2.55470210       2.65441916       2.71069057       2.78603723       2.85439177       2.91723250       2.95309588       2.85830076       2.69128709       2.31274552       2.19814708       2.21124892       2.22204775       2.19986711       2.20533856       2.21511419       2.22085987
           2.21545492       2.22597566       2.23655604       2.23157019       2.23324368       2.24891961       2.25332137       2.26326192       2.25384155       2.27452674       2.49609025       2.96950877       3.07960592       3.11864246       3.64904332       3.14953620       2.83962445       2.81431773       2.80453864       2.75999737
           2.74979526       2.74635758       2.72020127       2.69554373       2.76484496       2.76514931       2.30856168       2.30765255       2.30287597       2.58856924       2.65850562       1.96645831       1.89209558       1.89422702       2.04682601       2.04808748       2.04986514       2.05099097       2.05446666       2.10265617
           1.97918422       1.89931128       2.16551842       2.25376449       2.25495415       2.25649327       2.25745688       2.26176159       2.26165907       2.26231350       2.26339872       2.26355493       2.26337599       2.29764763       2.10864447       2.02547542       1.96353477       1.96306037       1.96087071       1.96115035
           1.96038262       1.96145588       1.96129851       1.96179355       1.96174973       1.96190179       1.96232240       1.96367585       1.96355642       1.96314714       1.96316965       1.96361384       1.96404364       1.96524311       1.96511376       1.88538555       1.88484242       1.88573238       1.88459369       1.88494466
           1.88470701       1.88284169       1.88357217       1.88319713       1.88147416       1.88202927       1.88116781       1.88144388       1.88058213       1.88033299       1.87960542       1.87971813       1.87906339       1.87894541       1.87791114       1.87798903       1.87794164       1.87819995       1.87819389       1.87833928
           1.87860188       1.87908469       1.87871610       1.87846167       1.87800759       1.87677210       1.87602753       1.87647551       1.87619114       1.87835283       1.87665346       1.81054253       1.81034882       1.81147797       1.81059862       1.80936214       1.80927969       1.80942571       1.80901778       1.80858968
           1.80771002       1.80867521       1.80833283       1.80962743       1.81135929       1.81224770       1.81268471       1.81428876       1.81372410       1.81385008       1.81316703       1.81429747       1.81205142       1.81397536       1.80973873       1.80844264       1.80802874       1.80724083       1.80537332       1.80751559
           1.80490298       1.80742743       1.80823121       1.81136610       1.80245455       1.80152960       1.79883155       1.79968150       1.80501948       1.80683086       1.80570008       1.85242753       1.84921136       1.84145864       1.84712408       1.85103212       1.86807154       1.86869812       1.87144506       1.85451574
           1.85957059       1.87267177       1.87465176       1.84534613       1.87867331       1.84781697       1.88870557       1.88678578       1.89052865       1.88887095       1.89160754       1.89549208       1.87698176       1.85447366       1.85098904       1.84342170       1.83770223       1.84050610       1.85450722       1.73817143
           1.76556033       1.70534145       1.69878836       1.78050905       0.46582070       0.48117559       0.48354471       0.49148165       0.49607228       0.49893632       0.50998733       0.51680315       0.51962867       0.52078133       0.52347234       0.52252123       0.52927659       0.58422494       0.54466053       0.59171510
           0.50676036       0.50515669       0.50175968       0.49756071       0.48973776       0.48501399       0.48208695       0.48571601       0.46041278       0.46143222       0.46363355       0.46701263       0.46877945       0.45471838       0.47124520       0.47519661       0.48415069       0.46162594       0.46610709       0.46809304
           0.44545673       0.47688995       0.45476387       0.44255655       0.53932530       0.56969573       0.57266638       0.57288174       0.57219800       0.54295484       0.54357350       0.54364573       0.54358540       0.54421256       0.54671079       0.55008771       0.63197410       0.63946244       0.70661553       0.71652359
           0.72870557       0.74576227       0.76079078       0.76990602       0.77501760       0.76047313       0.75976257       0.74574766       0.73507307       0.69657288       0.68023560       0.65208784       0.63595216       0.52864129       0.50518680       0.52266626       0.49038967       0.44351801       0.42365626       0.42447788
           0.43603292       0.42037749       0.42124086       0.42070245       0.41920297       0.42030582       0.41982574       0.41844794       0.41935584       0.41897094       0.42143405       0.42536907       0.41165303       0.40877831       0.40766047       0.40818954       0.40764975       0.40711897       0.40390125       0.40540425
           0.40970455       0.40434747       0.35456250       0.33699525       0.33321585       0.32912290       0.32539401       0.32527073       0.32231800       0.30213675       0.29461780       0.29326185       0.29217820       0.29210107       0.29186923       0.28599418       0.28500998       0.28503672       0.28500986       0.28515521
           0.28626883       0.28558066       0.27075145       0.26181280       0.24505168       0.24558029       0.25871229       0.25960464       0.26370329       0.26414641       0.26655032       0.26771374       0.26660750       0.26702405       0.26763803       0.26784034       0.26815080       0.26719975       0.26649935       0.25833811
           0.23135289       0.23026586       0.23428231       0.23014364       0.22945704       0.29415179       0.31779737       0.34328372       0.34345556       0.34548913       0.34572499       0.33949154       0.33963640       0.34407642       0.34418226       0.34241658       0.34262707       0.33839976       0.34558382       0.34534279
           0.34286233       0.34111634       0.33919341       0.33333574       0.33390773       0.33101793       0.33070043       0.33417574       0.34051469       0.34223586       0.34463404       0.34597189       0.22927660       0.44014543       0.52997087       0.51584446       0.51433225       0.51526926       0.49745064       0.39163713
           0.37937245       0.37889327       0.39603078       0.40221518       0.42763756       0.47272516       0.47175088       0.39485194       0.38865653       0.39039760       0.37091768       0.34588247       0.33527261       0.33752506       0.33547547       0.33490177       0.40619682       0.42405955       0.45107074       0.54032636
           0.61746982       0.62459201       0.62500874       0.62528100       0.62432860       0.63692284       0.62734260       0.62750795       0.63206090       0.64330705       0.72798043       0.77644467       0.77886988       0.77898358       0.78851306       0.79613152       0.80878396       0.81336849       0.78681524       0.72297011
           0.72572642       0.71837182       0.67442808       0.64684456       0.58469246       0.43562291       0.42313207       0.42028424       0.42232442       0.42410021       0.42936127       0.43531350       0.44002995       0.44500094       0.43460912       0.44791393       0.44340445       0.44578092       0.46168064       0.48231935
           0.51535622       0.53484346       0.53419785       0.53741883       0.53911041       0.54168837       0.53846568       0.54307278       0.58165461       0.59433649       0.60728102       0.62102342       0.63057320       0.64041093       0.67827169       0.68026961       0.70315899       0.67464585       0.67356355       0.68196585
           0.67498605       0.67678060       0.65144740       0.65311931       0.64590279       0.70650196       0.78315649       0.83652066       0.89155747       1.01227689       1.02096059       1.03902722       1.05085505       1.05530474       1.04960618       1.05064485       1.07404483       1.17252327       1.21199979       1.21750611
           1.24338419       1.28397672       1.29319407       1.29607287       1.32155959       1.34395034       1.39279133       1.43113302       1.47951844       1.49270769       1.49663431       1.52566275       1.55167394       1.57156204       1.58586184       1.61057535       1.63196357       1.69575060       1.70685984       1.72529962
           1.78560493       1.79706832       1.84498221       1.85408082       1.85921976       1.86559514       1.86912471       1.87165798       1.87408418       1.87425556       1.87030037       1.86757810       1.86468895       1.86127797       1.85808892       1.84742256       1.84026123       1.82148817       1.81600178       1.80359623
           1.80381560       1.78744775       1.78775057       1.78576000       1.78533026       1.78178704       1.77813142       1.76872363       1.76217810       1.76409313       1.75027109       1.74936617       1.74352014       1.74046647       1.73843871       1.73293423       1.73072593       1.72223053       1.71832195       1.70101359
           1.68599224       1.68373455       1.68130282       1.67723087       1.67531836       1.66261835       1.65953837       1.65418924       1.64641969       1.64838635       1.64534396       1.64437204       1.63505400       1.62110322       1.60638262       1.60686009       1.60068597       1.59894614       1.59573647       1.59717839
           1.58174455       1.58176519       1.58538874       1.57660232       1.56485268       1.56141466       1.54829962       1.53235114       1.52870943       1.52801464       1.52187438       1.51314680       1.51271210       1.50380342       1.49904482       1.49935686       1.50445924       1.50185074       1.50367329       1.50030112
           1.50394000       1.50221855       1.50419317       1.50079595       1.47896743       1.47548963       1.46961563       1.46778859       1.46949094       1.46649914       1.46935928       1.46614949       1.46751528       1.46576484       1.47024290       1.46683372       1.47009696       1.46665064       1.46948487       1.47466704
           1.47160802       1.47231196       1.46936305       1.47005696       1.47359704       1.47477665       1.47438226       1.47931324       1.48660372       1.48749286       1.49275978       1.49062088       1.49489129       1.51779598       1.51420967       1.51644955       1.53920983       1.54611989       1.54496775       1.55330374
           1.55498551       1.56591995       1.64378922       1.69265761       1.75508001       1.77142573       1.77559687       1.77641940       1.77722149       1.77922968       1.78055096       1.77751929       1.80361891       1.84258743       1.90537945       1.94531678       1.99699377       2.04382220       2.14711501       2.33803677
           2.47643577       2.47036226       3.16130433       3.16030384       3.15908955       3.15787654       3.15633218       3.15361539       3.15052500       3.14986913       3.14962869       3.14820308       3.14823994       3.14705149       3.14531519       3.14145060       3.14042554       3.13956813       3.13853091       3.13596056
           3.13515082       3.13125884       3.12974410       3.12785526       3.12559834       3.12534369       3.12169372       3.11900105       3.11819444       3.11595135       3.11445027       3.11238401       3.11108053       3.11098272       3.10735539       3.10043060       3.10030297       3.09916138       3.09909147       3.09869918
           3.09654309       3.09192246       3.09071662       3.08959740       3.08881639       3.08427997       3.08364089       3.08357649       3.08051820       3.07962066       3.07885375       3.07743937       3.07475618       3.07149550       3.06841950       3.06836042       3.06799584       3.06386047       3.06188973       3.06044453
           3.05843487       3.05826007       3.05427113       3.05295619       3.05289708       3.04893146       3.04680128       3.04525384       3.04217635       3.04214896       3.04136318       3.04031811       3.04026547       3.03900235       3.03666736       3.03499285       3.03404168       3.03337772       3.03275183       3.02874730
           3.02743562       3.02736957       3.02571726       3.02241752       3.02140570       3.02136252       3.01470938       3.01313946       3.01016022       3.01007499       3.00959035       3.01120823       3.01461735       3.01737253       3.01943025       3.02074690       3.02127939       3.02098602       3.01982753       3.01776839
           3.01477842       3.01083468       3.00790873       3.00555511       2.99967262       2.99484396       2.99286276       2.98880289       2.98378925       2.97781685       2.97089340       2.96689840       2.96754357       2.96719398       2.96579143       2.96328457       2.95962700       2.95477975       2.94871416       2.94374438
           2.93972000       2.93942539       2.93871529       2.93837829       2.93291730       2.92673756       2.92572191       2.92377575       2.92268674       2.92200417       2.92128047       2.91319232       2.90424352       2.90176036       2.89729353       2.89664096       2.89620601       2.89408887       2.89038074       2.88979468
           2.88441612       2.88089269       2.87616750       2.87598453       2.86918896       2.86072101       2.85055071       2.83867613       2.82513072       2.80999067       2.79338137       2.77548228       2.75652887       2.73681093       2.71666631       2.69647011       2.69059447       2.68692948       2.68185444       2.66503784
           2.66355307       2.64772209       2.64503968       2.62954245       2.61269211       2.60003925       2.59147202       2.59111658       2.58588725       2.57540586       2.56256035       2.56124842       2.54754686       2.53191678       2.51443779       2.51175030       2.50765291       2.50738836       2.49036015       2.47147116
           2.45090994       2.43269150       2.42847376       2.40665806       2.40445118       2.37976129       2.35340701       2.32860164       2.31632262       2.31359800       2.30653232       2.30249612       2.27393117       2.26665429       2.25338549       2.23109503       2.21933637       2.20147235       2.18299230       2.16423830
           2.14557866       2.12738850       2.11002930       2.09383107       2.07907990       2.07614193       2.07173209       2.07166775       2.06767902       2.06529774       2.05221825       2.03919973       2.03715046       2.03516300       2.02445076       2.01531532       2.01466752       2.01120477       2.00436748       2.00039019
           1.99681126       1.99021448       1.98903105       1.98242234       1.97754412       1.97712818       1.97503931       1.97455818       1.97464739       1.97470753       1.97151562       1.97009421       1.97189522       1.97241968       1.97917953       1.99172825       2.00243073       2.03938739       2.09147861       2.13905875
           2.14875293       2.15624056       2.18854071       2.19478691       2.19800279       2.20489709       2.20947968       2.22706885       2.23037351       2.22672288       2.22632496       2.22100070       2.21737043       2.21639605       2.21648598       2.21795797       2.21804326       2.21831049       2.21847389       2.21989013
           2.22643310       2.23407082       2.23838739       2.23848877       2.23872174       2.24254277       2.24318747       2.24437842       2.24722287       2.25547749       2.26083666       2.27334217       2.28586977       2.29813805       2.29885277       2.30050229       2.30553319       2.32066340       2.33147607       2.33869716
           2.35349764       2.35732315       2.36333416       2.36540505       2.38181643       2.40013294       2.41817736       2.43565621       2.45230650       2.46790470       2.48227139       2.48363504       2.48446321       2.48827300       2.50668790       2.52422021       2.53886591       2.54358031       2.56488765       2.58500991
           2.58640425       2.60266027       2.61759656       2.63108757       2.63227431       2.64603116       2.65981718       2.66504746       2.66717089       2.67330454       2.67454708       2.67702748       2.67776079       2.68120781       2.68187239       2.69754601       2.70016779       2.70042548       2.70301856       2.71117965
           2.71508516       2.72354875       2.72381408       2.72464540       2.72678206       2.72670325       2.73791932       2.73914527       2.74298179       2.74397047       2.74647158       2.74950405       2.74972301       2.75161362       2.76469824       2.77620071       2.77807919       2.77961379       2.78036515       2.78246023
           2.78374832       2.78798916       2.78805514       2.78967310       2.79203210       2.79258819       2.79995506       2.80604148       2.80677656       2.80848135       2.81343547       2.81386632       2.81409633       2.81485796       2.81709883       2.81800849       2.81883992       2.81948032       2.82109886       2.82210755
           2.82300942       2.82379320       2.82428354       2.82495834       2.82525061       2.82926897       2.82982881       2.83054569       2.83493030       2.83602563       2.84469660       2.84558242       2.84729323       2.84805450       2.85591618       2.85881125       2.85917352       2.86337254       2.86345257       2.86483265
           2.86640133       2.86733412       2.86764942       2.86759903       2.87341357       2.87450066       2.87646128       2.87741916       2.87759233       2.87811086       2.87902998       2.88079514       2.88233839       2.88690278       2.88848766       2.89026525       2.89157085       2.89463219       2.89521072       2.89518016
           2.89894054       2.89994229       2.90093943       2.90315709       2.90360397       2.90485801       2.91011822       2.91604901       2.91686730       2.92329270       2.92699633       2.93103042       2.93755645       2.93782895       2.93985426       2.94123565       2.94144757       2.94395454       2.94429009       2.94547252
           2.94989842       2.95620390       2.95651903       2.96193839       2.96223498       2.96694674       2.96709337       2.96846189       2.96981201       2.97117528       2.97301849       2.97638001       2.98106377       2.98469983       2.98730337       2.98747966       2.98868963       2.99056378       2.99057874       2.99082189
           2.99089791       2.99100978       2.99105037       2.99129910       2.99166984       2.99204335       2.99214604       2.99209469       2.99231190       2.99269848       2.99276743       2.99287095       2.99504229       2.99532372       2.99536686       2.99628240       2.99647680       2.99652348       2.99672375       2.99708739
           2.99685269       2.99646384       2.99650060       2.99643774       2.99642786       2.99669323       2.99658884       2.99659515       2.99658138       2.99658707       2.99656223       2.99654600       2.99655953       2.99653895       2.99649267       2.99646273       2.99644010       2.99642657       2.99643246       2.99644554
           2.99633740       2.99629320       2.99612529       2.99610657       2.99608899       2.99599501       2.99589823       2.99584508       2.99514262       2.99501249       2.99493717       2.99516477       2.99518564       2.99535756       2.99533194       2.99540498       2.99541924       2.99529812       2.99532555       2.99452232
           2.99446525       2.99433811       2.99422624       2.99400640       2.99393305       2.99313392       2.99301254       2.99181260       2.99184067       2.99168212       2.99166243       2.99145652       2.99119711       2.99095055       2.99005159       2.98961769       2.99050597       2.99073080       2.99279336       2.99295368
           2.99308331       2.99318307       2.99370788       2.99373662       2.99378212       2.99383074       2.99377525       2.99370776       2.99348665       2.99329556       2.99273270       2.99249166       2.99135747       2.99052445       2.98971722       2.99253847       2.99466222       2.99787952       3.00073880       3.00316666
           3.00377135       3.00428745       3.00434487       3.00633041       3.00677922       3.00727986       3.00741724       3.00738254       3.00830196       3.00832888       3.00936414       3.00938178       3.01188954       3.01201167       3.01278317       3.01305428       3.01452677       3.01558498       3.01622081       3.01643399
           3.01643392       3.01639436       3.01640147       3.01637202       3.01632163       3.01583769       3.01494268       3.01418292       3.01316300       3.01315163       3.01292693       3.01265985       3.01221080       3.01160848       3.01163916       3.01160311       3.01156116       3.01155427       3.01152641       3.01095012
           3.01084233       3.00979116       3.00963199       3.00890297       3.00882663       3.00880640       3.00805390       3.00597417       3.00569281       3.00527378       3.00509471       3.00295025       3.00054554       3.00044608       2.99983097       2.99971699       2.99920048       2.99905619       2.99757920       2.99595496
           2.99576675       2.99423627       2.99400896       2.99325273       2.99340638       2.99351817       2.99351229       2.99313704       2.99223270       2.99079922       2.99059938       2.99023615       2.98996529       2.98980619       2.98945054       2.98922851       2.98807022       2.98660092       2.98651123       2.98563683
           2.98545019       2.98333950       2.98085305       2.98047569       2.97593915       2.97552481       2.97494211       2.97472714       2.97423127       2.97432475       2.97435883       2.97436738       2.97449537       2.97453427       2.97459620       2.97459620       2.97461825       2.97463759       2.97460371       2.97458940
           2.97427711       2.97437272       2.97502098       2.97509841       2.97617493       2.97634645       2.97636323       2.97643278       2.97648625       2.97661278       2.97662539       2.97658938       2.97667992       2.97667198       2.97623842       2.97617825       2.97516376       2.97467696       2.97466934       2.97445023
           2.97245758       2.96961980       2.96940994       2.96614556       2.96546434       2.96409730       2.96336029       2.96302840       2.96285902       2.96219472       2.95946054       2.95849883       2.95629328       2.95250258       2.95230576       2.95151437       2.95152164       2.95108600       2.94894354       2.94779935
           2.94309495       2.94274206       2.93967088       2.93931052       2.93857273       2.93420849       2.92827523       2.92811476       2.92750836       2.92335488       2.92306375       2.91692643       2.91633561       2.91529040       2.91529228       2.91457849       2.91336315       2.91158178       2.91125586       2.90453209
           2.90217536       2.89997832       2.89419550       2.89353410       2.88849181       2.88752467       2.88473592       2.88457126       2.88183805       2.88163529       2.87634711       2.87327160       2.86989522       2.86932660       2.86869082       2.86829997       2.86809397       2.86761725       2.86304244       2.85802632
           2.85629101       2.85630168       2.85556164       2.85417694       2.85261245       2.85204014       2.85203579       2.85013034       2.84995560       2.84965784       2.84751985       2.84653163       2.83808047       2.83747539       2.83176302       2.82826185       2.82704361       2.82667369       2.82587185       2.82573615
           2.82410407       2.81886778       2.81844494       2.81785747       2.81584818       2.81349893       2.80774916       2.80730365       2.80663120       2.80335190       2.80334909       2.80184642       2.80022687       2.79788116       2.79394854       2.78648364       2.77821128       2.77776674       2.77087650       2.76374637
           2.76298967       2.76195023       2.75768506       2.75682719       2.75568893       2.75391914       2.75255800       2.74873656       2.74371258       2.74245014       2.74100799       2.74027920       2.73971632       2.73290735       2.73219834       2.72575382       2.72513254       2.72287220       2.71924886       2.71604222
           2.71279954       2.70595351       2.70566377       2.69846658       2.69708583       2.68883786       2.68060363       2.67979850       2.67885117       2.67729158       2.67546251       2.67396877       2.66982251       2.66944073       2.66746060       2.66304913       2.65519805       2.65499422       2.65390169       2.64576402
           2.64202993       2.63868516       2.63869032       2.63763923       2.63662315       2.63434051       2.63256271       2.62910812       2.62050897       2.62011772       2.61938246       2.61889023       2.61851619       2.61690900       2.61607298       2.61538844       2.61489955       2.60720845       2.59958193       2.59646598
           2.59581992       2.59306359       2.59102808       2.58219239       2.58202076       2.58185116       2.58044981       2.57828597       2.57729638       2.56883405       2.56835299       2.56184254       2.55971860       2.55914858       2.55836332       2.55709465       2.55656486       2.55623800       2.55194762       2.54803128
           2.54715435       2.54431522       2.54308303       2.53521724       2.53420306       2.52695642       2.51982459       2.51807769       2.51485910       2.50871820       2.50214684       2.49458282       2.49135103       2.49029753       2.49006700       2.48927297       2.48922724       2.48888946       2.48749468       2.48692779
           2.48673656       2.48663351       2.48113658       2.47806589       2.47504427       2.46780827       2.46733021       2.46563627       2.46290329       2.46182748       2.45848664       2.45738716       2.45705036       2.45367875       2.45329787       2.44716288       2.44591968       2.44106643       2.43908616       2.43885088
           2.43815738       2.43485967       2.43394249       2.42809426       2.42220338       2.42170860       2.42104992       2.41547317       2.41485316       2.40711822       2.39935899       2.39165892       2.38826359       2.38662626       2.37889786       2.37138596       2.36417255       2.36036093       2.35810958       2.35167368
           2.34544104       2.34444957       2.34283549       2.34130447       2.34101141       2.33625230       2.33494515       2.32699990       2.31914927       2.31148634       2.30410112       2.29707926       2.29565492       2.29389474       2.29043546       2.28872254       2.28392199       2.28376736       2.27680817       2.27143644
           2.26836429       2.26184279       2.25559648       2.24968362       2.24856160       2.24442585       2.24382186       2.24281977       2.23576101       2.22897743       2.22254360       2.22175509       2.21633577       2.21130241       2.20910111       2.20600760       2.20355284       2.19711335       2.19048818       2.18374630
           2.17883153       2.17637900       2.16857375       2.16824825       2.16072381       2.15342465       2.15173635       2.14930819       2.14238074       2.13649403       2.13552035       2.13524915       2.12909236       2.12283973       2.11655067       2.11418695       2.11395433       2.11147751       2.10769049       2.10708544
           2.10561372       2.09996102       2.09541194       2.09400763       2.09331869       2.08731283       2.08249820       2.08219796       2.07626547       2.07055759       2.06513021       2.06003657       2.05532670       2.05104680       2.04723860       2.04721947       2.04691603       2.04314083       2.04284114       2.03875135
           2.03692303       2.03232747       2.02689771       2.02173347       2.02166165       2.01637535       2.01282111       2.01065019       2.00994174       2.00947584       2.00535469       2.00497192       2.00310042       2.00297996       2.00291409       2.00100063       2.00091511       1.99782253       1.99754607       1.99446142
           1.99303124       1.99270694       1.98649941       1.98585318       1.97965013       1.97931025       1.97469778       1.97387677       1.97384364       1.97358917       1.96848506       1.96803335       1.96488381       1.96441822       1.96441032       1.96391921       1.96389785       1.96374426       1.96372682       1.96228534
           1.95777544       1.95448105       1.95182716       1.94754567       1.94675583       1.94263480       1.94191569       1.94107401       1.93659173       1.93605665       1.93472536       1.93421537       1.93374296       1.93310114       1.93248583       1.93117599       1.93026547       1.92608772       1.92159310       1.91934434
           1.91935455       1.91863822       1.91819473       1.91681717       1.91538910       1.91330941       1.91229297       1.91093652       1.90578657       1.90045924       1.89903707       1.89815626       1.89262424       1.89186584       1.89047035       1.88900462       1.88439910       1.88264448       1.88265616       1.88136502
           1.87651648       1.87146314       1.87081320       1.86532708       1.85970900       1.85401219       1.85335159       1.84895811       1.84457801       1.84387662       1.83705646       1.83667324       1.83443246       1.83247843       1.82922313       1.82887081       1.82849987       1.82688566       1.82687195       1.82676042