# File generated by Flopy version 3.9.1 on 02/10/2026 at 22:14:47.
BEGIN options
  SAVE_FLOWS
END options

BEGIN packages
  disv6  voronoi_caseC.disv  disv
  ic6  voronoi_caseC.ic  ic
  chd6  voronoi_caseC.chd  chd
  npf6  voronoi_caseC.npf  npf
  wel6  voronoi_caseC.wel  well_package
  rch6  voronoi_caseC.rch  rch
  evt6  voronoi_caseC.evt  evt
  oc6  voronoi_caseC.oc  oc
END packages

