# File generated by Flopy version 3.9.1 on 02/12/2026 at 10:44:06.
BEGIN options
END options

BEGIN griddata
  strt
    INTERNAL  FACTOR  1.0
        -6.50000000      -6.50000000      -6.50000000      -6.50000000      -6.50000000      -6.50000000      -6.50000000      -6.50000000      -6.50000000      -0.50000000      -0.50000000      -0.50000000      -0.50000000      -0.50000000      -0.50000000      -0.50000000      -0.50000000      -0.50000000      -0.50000000      -0.50000000
        -0.50000000      -6.50000000      -6.50000000      -6.50000000      -6.50000000      -6.50000000      -6.50000000      -6.50000000      -6.50000000      -6.50000000      -6.50000000      -6.50000000      -6.50000000      -6.50000000      -6.50000000      -6.50000000      -6.50000000      -6.50000000      -6.50000000      -6.50000000
        -6.50000000      -6.50000000      -6.50000000      -6.50000000      -9.50000000      -9.50000000      -9.50000000      -9.50000000      -6.50000000      -6.50000000      -6.50000000      -8.50000000      -8.50000000      -8.50000000      -8.50000000      -8.50000000      -8.50000000      -8.50000000      -8.50000000      -8.50000000
        -8.50000000      -8.50000000      -8.50000000      -8.50000000      -6.50000000      -6.50000000      -6.50000000      -6.50000000      -6.50000000      -6.50000000      -6.50000000      -6.50000000      -6.50000000      -6.50000000      -6.50000000      -6.50000000      -6.50000000      -6.50000000      -6.50000000      -6.50000000
         0.50000000       0.50000000       0.50000000       0.50000000       0.50000000       0.50000000       0.50000000       0.50000000       0.50000000       0.50000000       0.50000000       0.50000000       0.50000000       0.50000000       0.50000000       0.50000000       0.50000000       0.50000000       0.50000000       0.50000000
         0.50000000       0.50000000       0.50000000       0.50000000       0.50000000       0.50000000       0.50000000       0.50000000       0.50000000       0.50000000       0.50000000       0.50000000      -7.50000000      -7.50000000      -7.50000000      -7.50000000      -7.50000000      -7.50000000      -7.50000000      -7.50000000
        -7.50000000      -7.50000000      -7.50000000      -7.50000000      -7.50000000      -7.50000000      -7.50000000      -7.50000000      -0.50000000      -0.50000000      -0.50000000      -0.50000000      -0.50000000      -0.50000000      -0.50000000      -0.50000000      -0.50000000      -0.50000000      -0.50000000      -0.50000000
        -0.50000000      -0.50000000      -0.50000000      -0.50000000       2.43373025       2.47248325       2.43751474       2.47703698       2.51086788       2.54865701       2.51619470       2.55474975       2.44170439       2.48199417       2.44631433       2.48736902       2.52192660       2.56125200       2.52807716       2.56817703
         0.50000000       0.50000000       0.50000000       0.50000000       0.50000000       0.50000000       0.50000000       0.50000000       0.50000000       0.50000000       0.50000000       0.50000000       0.50000000       0.50000000       0.50000000       0.50000000      -0.50000000      -0.50000000      -0.50000000      -0.50000000
        -0.50000000      -0.50000000      -0.50000000      -0.50000000      -0.50000000      -0.50000000      -0.50000000      -0.50000000      -0.50000000      -0.50000000      -9.50000000      -9.50000000      -9.50000000      -9.50000000      -9.50000000      -9.50000000      -2.50000000      -2.50000000      -2.50000000      -2.50000000
        -2.50000000      -2.50000000      -2.50000000      -2.50000000      -2.50000000      -2.50000000      -2.50000000      -2.50000000      -2.50000000      -2.50000000      -9.50000000      -9.50000000      -9.50000000      -6.50000000      -6.50000000      -6.50000000      -6.50000000      -6.50000000      -6.50000000      -6.50000000
        -6.50000000      -6.50000000      -6.50000000      -6.50000000      -6.50000000      -6.50000000      -6.50000000      -6.50000000       1.60405600       1.63047816       1.58958047       1.61820429       1.65927498       1.68973192       1.64915238       1.68159036       1.57638855       1.60742985       1.56494970       1.59861778
         1.64069066       1.67520163       1.63432526       1.67095586       1.72126784       1.75345464       1.71486537       1.74852148       1.78601184       1.81878586       1.78228323       1.81602284       1.71023969       1.74533279       1.70772562       1.74416606       1.79744019       1.85172305       1.88484259       1.84972317
         1.88344332       1.93451909       1.86672076       1.93545022       1.50000000       1.50000000       1.50000000       1.50000000       1.50000000       1.50000000       1.50000000       1.50000000       1.50000000       1.50000000       1.50000000       1.50000000       1.50000000       1.50000000       1.50000000       1.50000000
         1.50000000      -0.50000000      -0.50000000      -0.50000000      -0.50000000      -0.50000000      -0.50000000      -0.50000000      -0.50000000      -0.50000000      -0.50000000      -0.50000000      -0.50000000      -0.50000000      -0.50000000      -0.50000000      -0.50000000      -8.50000000      -8.50000000      -8.50000000
        -8.50000000      -8.50000000      -8.50000000      -8.50000000      -8.50000000      -8.50000000      -8.50000000      -8.50000000      -8.50000000      -8.50000000      -8.50000000      -8.50000000      -8.50000000      -6.50000000      -6.50000000      -6.50000000      -6.50000000      -6.50000000      -6.50000000      -6.50000000
        -6.50000000      -6.50000000      -6.50000000      -6.50000000      -6.50000000      -6.50000000      -6.50000000      -6.50000000      -6.50000000      -6.50000000      -6.50000000      -6.50000000      -6.50000000      -6.50000000      -6.50000000      -6.50000000      -6.50000000      -6.50000000      -6.50000000      -6.50000000
        -6.50000000      -6.50000000      -6.50000000      -6.50000000      -6.50000000      -6.50000000      -6.50000000      -6.50000000      -6.50000000      -6.50000000      -6.50000000      -6.50000000      -6.50000000      -6.50000000      -6.50000000      -6.50000000      -6.50000000      -6.50000000      -6.50000000      -6.50000000
        -6.50000000       0.50000000       0.50000000       0.50000000       0.50000000       0.50000000       0.50000000       0.50000000       0.50000000       0.50000000       0.50000000       0.50000000       0.50000000       0.50000000      -9.50000000      -9.50000000      -9.50000000      -9.50000000      -2.50000000      -2.50000000
        -2.50000000      -2.50000000      -2.50000000      -2.50000000      -2.50000000      -2.50000000      -2.50000000      -2.50000000      -2.50000000      -2.50000000      -2.50000000       1.86900861       1.86896424       1.87379542       1.87201422       1.87351032       1.87712746       1.87894438       1.87361723       1.87881735
         1.87845798       1.88406171       1.88251586       1.88469926       1.88816612       1.89076108       1.87347431       1.87187673       1.87922491       1.87794044       1.86867920       1.86383235       1.87505273       1.87051148       1.88534871       1.88443778       1.89183127       1.89135386       1.88193003       1.87777627
         1.88929598       1.88561180       1.85727363       1.84892527       1.86425167       1.85619076       1.83869236       1.82646174       1.84622587       1.83423117       1.87191154       1.86425167       1.88023925       1.87309615       1.85386316       1.81231385       1.79937916       1.82020440       1.80728212       1.77994978
         1.75795545       1.78783665       1.76565051       1.82937409       1.81671189       1.83982243       1.82770062       1.79752022       1.77545718       1.80906563       1.78749215      -0.50000000      -0.50000000      -0.50000000      -0.50000000      -0.50000000      -0.50000000      -0.50000000      -0.50000000      -0.50000000
        -0.50000000      -0.50000000      -0.50000000      -0.50000000      -0.50000000       0.50000000       0.50000000       0.50000000       0.50000000       0.50000000       0.50000000       0.50000000       0.50000000       0.50000000       0.50000000       0.50000000       0.50000000       0.50000000       0.50000000       0.50000000
        -0.50000000      -0.50000000      -0.50000000      -0.50000000      -0.50000000      -0.50000000      -0.50000000      -0.50000000      -0.50000000      -0.50000000      -0.50000000      -0.50000000      -0.50000000      -0.50000000      -0.50000000      -0.50000000       1.46069885       1.47391945       1.44598408       1.46016702
         1.49493788       1.52278055       1.48311846       1.51369338       1.43464379       1.44969026       1.42747549       1.44343229       1.48894313       1.55585358       1.59233631       1.54984162       1.58927855       1.64976260       1.57049634       1.65851004       1.72792030       1.80198617       1.74081935       1.81562596
         1.91233088       2.05122796       2.20326286       0.50000000       0.50000000       0.50000000       0.50000000       2.47610761       2.50000000       2.48348078       2.50000000       2.50000000       2.50000000       2.50000000       2.50000000       2.50000000       2.50000000       2.65267197       2.69452886       2.66316781
         2.70582111       2.73475410       2.77298740       2.74681579       2.78577480       2.70197084       2.75940757       2.79911374       2.77253755       2.81301429       2.80887969       2.84209974       2.82233280       2.85614310       2.87233985       2.89932040       2.88688345       2.91426072       2.83636246       2.87079153
         2.85098118       2.88606061       2.90206421       2.92987390       2.91790149       2.94618396       2.92279327       2.94254424       2.93801423       2.95791792       2.95839421       2.97019983       2.97378144       2.98545030       2.95394742       2.97404697       2.97062255       2.99096790       2.98997087       3.00155339
         3.00700719       3.01856347       2.97785347       2.98128301       2.99280553       2.99576306       2.98045179       2.97535905       2.99427325       2.98832101       3.00866387       3.01120568       3.02549431       3.02769014       3.00911519       3.00236147       3.02507263       3.01759373       1.50000000       1.50000000
         1.50000000       1.50000000       1.50000000       1.50000000       1.50000000       1.50000000       1.50000000       1.50000000       1.50000000       1.50000000       1.50000000       1.50000000       1.50000000       1.50000000      -9.50000000      -9.50000000      -9.50000000      -9.50000000      -9.50000000      -9.50000000
        -9.50000000      -9.50000000      -9.50000000      -9.50000000      -9.50000000      -9.50000000      -9.50000000      -0.50000000      -0.50000000      -0.50000000      -0.50000000      -0.50000000      -0.50000000      -0.50000000      -0.50000000      -0.50000000       1.45570122       1.48390997       1.53930244       1.51171899
         1.53901486       1.45383670       1.48253194       1.45188168       1.48105935       1.51083511       1.53863075       1.50985383       1.53814766       1.56547187       1.59090963       1.56568658       1.59162695       1.61551536       1.63919468       1.61673387       1.64091146       1.56580584       1.59225127       1.56582590
         1.59277761       1.61786328       1.64254454       1.61889737       1.64408653       1.69165006       1.71217417       1.69370409       1.71472220       1.78901007       1.80546482       1.79156170       1.80849097       1.69569739       1.71721892       1.69762133       1.71965455       1.79411228       1.81153049       1.79665081
         1.81457117       1.84444381       1.85642320       1.84776679       1.86021097       1.86692448       1.87594187       1.87117307       1.88065040       1.85961088       1.88299634       1.88347217       1.88951314       1.88864332       1.89515363       1.89892896       1.90047108       1.91209993       1.90251534       1.89999406
         1.91794343       1.91799761       1.89106349       1.87513449       1.91212303       1.89995184       1.85301939       1.82024052       1.88074733       1.85580895       1.78112357       1.72436019       1.68681217       1.74490596       1.70846012       1.82406382       1.76860276       1.63217092       1.53482060       1.69325093
         1.59600061       1.45183669       1.42057751       1.49711912       1.44734351       1.43358562       1.49865456       1.46964843       1.50000000       1.66420690       1.82141573       1.94895226       1.50000000       2.22793665       2.40310744       2.59599105       2.72682595       2.81439329       2.75375807       2.84481527
         2.89249527       2.95794830       2.92617325       2.99441814       3.00804841       3.04066780       3.04665543       3.08059686       3.05425464       3.04776926       3.09453401       3.08723266       3.02093331       3.00262864       3.03818148       3.01892480       2.97924208       2.95083594       2.99431885       2.96438540
         3.05779896       3.01142305       2.98014001       3.03076532       2.99835976      -6.50000000      -6.50000000      -6.50000000      -6.50000000      -6.50000000      -6.50000000      -6.50000000      -6.50000000      -6.50000000      -6.50000000      -6.50000000      -6.50000000      -6.50000000      -6.50000000      -6.50000000
        -6.50000000      -6.50000000      -6.50000000      -6.50000000      -6.50000000      -6.50000000      -6.50000000      -6.50000000      -6.50000000      -6.50000000      -6.50000000      -6.50000000      -6.50000000      -6.50000000      -6.50000000      -6.50000000      -6.50000000      -0.50000000      -0.50000000      -0.50000000
        -0.50000000      -0.50000000      -0.50000000      -0.50000000      -0.50000000      -0.50000000      -0.50000000      -0.50000000      -0.50000000      -0.50000000      -9.50000000      -9.50000000      -9.50000000      -9.50000000      -9.50000000      -9.50000000      -9.50000000      -9.50000000      -9.50000000      -9.50000000
        -2.50000000      -2.50000000      -2.50000000      -2.50000000      -2.50000000      -2.50000000       1.32986484       1.35982973       1.32600096       1.35637531       1.38988902       1.41993066       1.38686095       1.41734482       1.32209945       1.35287088       1.31817082       1.34932528       1.38377116       1.41468643
         1.38062685       1.41196101       1.44983830       1.47949290       1.44770928       1.47783374       1.52278368       1.45980377       1.52071305       1.57961430       1.63335622       1.57951773       1.63528861       1.71191777       1.80994020       1.71576843       1.81533467       1.88467894       1.92623426       1.94585171
         1.94525638       1.92689247       1.89296363       1.82366894      -0.50000000       1.73373718       1.82569082       1.91325733       2.00609493       2.11846653       2.26199251       2.44027394       2.64346611       2.84737827       3.02010601       3.13254155       3.16476966       2.50000000       2.50000000       2.50000000
         2.50000000       2.50000000       2.50000000       2.50000000       2.97976612       2.93386829       3.00287213       2.95581207       2.88158856       2.82302473       2.90189473       2.84108266       3.02137960       2.92687337       2.86441268       2.95697811       2.89364412      -7.50000000      -7.50000000      -7.50000000
        -7.50000000      -7.50000000      -7.50000000      -7.50000000      -7.50000000      -7.50000000      -7.50000000      -7.50000000      -7.50000000      -7.50000000      -7.50000000      -7.50000000      -7.50000000      -6.50000000      -6.50000000      -6.50000000      -6.50000000      -6.50000000      -6.50000000      -6.50000000
        -6.50000000      -6.50000000      -6.50000000      -6.50000000      -6.50000000      -6.50000000      -6.50000000      -6.50000000      -6.50000000      -6.50000000      -6.50000000      -6.50000000      -6.50000000      -6.50000000      -6.50000000      -6.50000000      -6.50000000      -6.50000000      -6.50000000      -6.50000000
        -6.50000000      -6.50000000      -6.50000000      -6.50000000      -6.50000000      -6.50000000      -6.50000000      -6.50000000      -6.50000000      -6.50000000      -6.50000000      -6.50000000      -6.50000000      -6.50000000      -6.50000000      -6.50000000      -6.50000000      -6.50000000      -6.50000000      -6.50000000
        -6.50000000      -6.50000000      -6.50000000      -6.50000000      -6.50000000      -6.50000000      -6.50000000      -6.50000000      -6.50000000      -6.50000000      -6.50000000      -6.50000000      -6.50000000      -6.50000000      -6.50000000      -6.50000000      -1.50000000      -1.50000000      -1.50000000      -1.50000000
        -1.50000000      -1.50000000      -1.50000000      -1.50000000      -1.50000000      -1.50000000      -1.50000000      -1.50000000      -1.50000000      -1.50000000      -1.50000000      -2.50000000      -2.50000000      -2.50000000      -2.50000000      -2.50000000      -2.50000000      -2.50000000      -2.50000000      -2.50000000
        -2.50000000      -2.50000000      -2.50000000      -2.50000000      -2.50000000      -2.50000000      -2.50000000      -2.50000000      -2.50000000      -2.50000000      -2.50000000      -2.50000000      -2.50000000       0.50000000       0.50000000       0.50000000       0.50000000       0.50000000       0.50000000       0.50000000
         0.50000000       0.50000000       0.50000000       0.50000000       0.50000000       0.50000000       0.50000000       0.50000000       0.50000000       1.45551173       1.51823554       1.45092508       1.51535661       1.60829065       1.74555517      -0.50000000      -0.50000000       1.98687613       2.00187177       2.00746918
         1.50000000       2.06746837       0.50000000       2.06718368       2.00522900       2.01631545       2.07269289       2.16658813       2.30328747       2.48436766       2.69818636       2.91762308       3.10737717       3.23598138       3.28275165       3.23584833       3.09123166       2.98219998       3.17883403       3.07883210
         2.85732471       2.77625813       2.90074257       2.81993455       2.68625647       2.58840129       2.72909880       2.62875577       2.94499535       2.76975680       2.48544315       2.38258365       2.52121463       2.41191549       2.28776754       2.21005237       2.31094183       2.23439980       2.55130582       2.33147436
         2.15115305       2.07850844       2.20668495       2.21383122       1.99875826       1.99773929       1.96613035       1.97938797       2.33576706       2.01497612       2.03573623       2.09685817       2.02736196       2.09710804       2.17563942       2.26534829       2.18501387       2.28316141       2.04194020       2.11849808
         2.08777845       2.16898816       2.21467668       2.31979739       2.27118349       2.37998162       2.35894660       2.45081677       2.38335370       2.47959069       2.53735191       2.61671836       2.56847767       2.64864569       2.42443797       2.52259010       2.48525226       2.58160422       2.61142734       2.69025354
         2.66714396       2.74196443      -6.50000000      -6.50000000      -6.50000000      -6.50000000      -6.50000000      -6.50000000      -6.50000000      -6.50000000      -6.50000000      -6.50000000      -6.50000000      -6.50000000      -6.50000000      -6.50000000      -6.50000000      -6.50000000       2.90489097       2.94491772
         2.93128895       2.96980138       2.98060714       3.01249577       3.00404268       3.03457067       2.96121312       2.99761828       2.99451292       3.02822468       3.02993778       3.05872414       3.05816116       3.08483923       3.04104681       3.06665746       3.06185674       3.08629856       3.08966752       3.11036797
         3.10823208       3.12794221       3.08443642       3.10745697       3.10868309       3.13004309       3.12810583       3.14665260       3.14921089       3.16643147      -2.50000000      -2.50000000      -2.50000000      -2.50000000      -0.50000000      -0.50000000      -0.50000000      -0.50000000      -0.50000000      -0.50000000
        -0.50000000      -0.50000000      -0.50000000      -0.50000000      -0.50000000      -0.50000000      -0.50000000      -0.50000000      -0.50000000      -0.50000000      -3.50000000      -3.50000000      -3.50000000      -3.50000000      -3.50000000      -3.50000000      -3.50000000      -3.50000000      -3.50000000      -3.50000000
        -3.50000000      -3.50000000      -3.50000000      -3.50000000      -3.50000000      -3.50000000       1.29853906       1.33133802       1.29470710       1.32776875       1.37939965       1.30574297       1.37313556       1.47709229       1.60701851       1.75225637      -1.50000000       0.50000000       2.02397597       2.05424798
         2.08007407       2.11772633       2.17606351       2.61402729       2.13303925       2.10857450       2.10366316       2.13826174       2.21785428       2.34936971       2.53411804       2.75932179       2.99568566       3.20555731       3.35631096       3.42782578       3.41124455       3.30639342       3.11582956       2.79870348
         2.40766446       2.27628697       2.47311163       2.68382334       2.78866093       2.66134314       2.73586046       2.80364205       2.81678680       2.87443333       2.89146956       2.97563126       2.86228585       2.91318582       2.92442624       2.96801994       2.95759091       2.99655033       3.00627645       3.04005748
         3.04318758       3.09809532       3.06492031       3.11618062       3.14326237       3.18063608       3.15734528       3.19063088       3.21157475       3.23709243      -2.50000000      -2.50000000      -2.50000000      -2.50000000      -2.50000000      -2.50000000      -2.50000000      -2.50000000      -2.50000000      -2.50000000
        -2.50000000      -2.50000000      -2.50000000      -2.50000000      -2.50000000      -2.50000000      -2.50000000      -2.50000000      -2.50000000      -2.50000000      -2.50000000      -1.50000000      -1.50000000      -1.50000000      -1.50000000      -1.50000000      -1.50000000      -1.50000000      -1.50000000      -1.50000000
        -1.50000000      -1.50000000      -1.50000000      -1.50000000      -1.50000000      -1.50000000      -1.50000000      -1.50000000      -1.50000000      -1.50000000      -1.50000000      -1.50000000      -1.50000000      -1.50000000      -1.50000000      -1.50000000      -1.50000000      -1.50000000      -1.50000000      -1.50000000
         0.50000000       0.50000000       0.50000000       0.50000000       0.50000000       1.46790320       1.60345294       1.75606800       1.93438131       2.00418841       2.05742736       2.10076932       1.50000000       2.18988508       2.22528228       2.22819575       2.19545410       2.18461974       2.17594601       2.19816164
         2.26880501       2.39817201       2.58819413       2.82565283       3.08011471       3.31294824       3.49168322       3.59745645       3.62341620       3.57877258       3.52132496       3.57640464       3.64555929       3.40394165       3.26004786       3.25021286       3.27634889       3.30483817      -2.50000000      -2.50000000
        -2.50000000      -2.50000000      -2.50000000      -2.50000000      -2.50000000      -2.50000000      -2.50000000      -2.50000000      -2.50000000      -2.50000000      -2.50000000      -2.50000000      -3.50000000      -3.50000000      -3.50000000      -3.50000000      -3.50000000      -3.50000000      -3.50000000      -3.50000000
        -3.50000000      -3.50000000      -3.50000000      -3.50000000      -3.50000000      -3.50000000      -3.50000000      -1.50000000      -1.50000000      -1.50000000      -1.50000000      -1.50000000      -1.50000000      -1.50000000      -1.50000000      -1.50000000      -1.50000000      -1.50000000      -1.50000000      -1.50000000
        -1.50000000      -1.50000000      -1.50000000      -2.50000000      -2.50000000      -2.50000000      -2.50000000      -2.50000000      -2.50000000      -2.50000000      -2.50000000      -2.50000000      -2.50000000      -2.50000000      -2.50000000      -2.50000000      -0.50000000      -0.50000000      -0.50000000      -0.50000000
        -0.50000000      -0.50000000      -0.50000000      -0.50000000      -0.50000000      -0.50000000      -1.50000000      -1.50000000      -1.50000000      -1.50000000       1.18360907       1.31754340       1.45806926       1.59757143       1.75649625       1.94412135       2.02247271       2.08517581       2.13929829       1.50000000
         2.25785280       2.31969745       0.50000000       2.31189794       2.26416992       2.23770378       2.25089385       2.31760874       2.44832079       2.64533614       2.89552617       3.16849651       3.42621145       3.63780994       3.78638342       3.86397587       3.86834070       3.84289276       3.94981983       3.88723605
         3.80632670       3.57812273       3.46430755       3.42502848       3.41320205      -2.50000000      -2.50000000      -2.50000000      -2.50000000      -2.50000000      -2.50000000      -2.50000000      -2.50000000      -2.50000000      -2.50000000      -2.50000000      -2.50000000      -2.50000000      -2.50000000      -2.50000000
        -2.50000000      -2.50000000      -2.50000000      -0.50000000      -0.50000000      -0.50000000      -0.50000000      -0.50000000      -0.50000000      -0.50000000      -0.50000000      -0.50000000      -0.50000000      -0.50000000      -0.50000000       0.57267301       0.53642845       0.57097244       0.53058816       0.50104708
         0.46849617       0.49071639       0.45376166       0.57239318       0.52758046       0.57800728       0.52860884       0.48272877       0.44079444       0.47834387       0.43089563       0.44074118       0.41945818       0.42214776       0.39793105       0.40582042       0.40035094       0.38258671       0.37682263       0.40475253
         0.37704738       0.38990744       0.35801244       0.35954630       0.35336120       0.33751381       0.33060881       0.40284915       0.41246950       0.38037699       0.39210284       0.42794088       0.44781591       0.41033635       0.43326313       0.35819739       0.37242996       0.33704329       0.35427563       0.39384469
         0.42017530       0.37930895       0.40935617      -0.50000000      -0.50000000      -0.50000000      -0.50000000      -0.50000000      -0.50000000      -0.50000000      -0.50000000      -0.50000000      -0.50000000      -0.50000000      -0.50000000      -0.50000000      -0.50000000      -0.50000000      -0.50000000      -0.50000000
        -1.50000000      -1.50000000      -1.50000000      -1.50000000      -3.50000000      -3.50000000      -3.50000000      -3.50000000      -0.50000000       1.05582888       1.17561709       1.30767377       1.44807328       1.50000000       1.50000000       1.94984846       2.03541302       2.10575160       2.16793168       2.23047452
         2.30959708       2.40148319       2.51467345       2.35146394       2.31583530       2.28429845       2.29557272       2.36374494       2.49913971       2.70434034       2.96678488       3.25729076       3.53996943       3.78706341       3.98530005       4.12754787       4.19256759       4.13910971       4.05135164       4.00807632
         3.88798069       3.74416822       3.62691381       3.55699762       3.51615331     -16.50000000     -16.50000000     -16.50000000     -16.50000000     -16.50000000     -16.50000000     -16.50000000     -14.50000000      -2.50000000      -2.50000000      -2.50000000      -2.50000000      -2.50000000      -2.50000000      -2.50000000
        -2.50000000      -2.50000000      -2.50000000      -2.50000000      -2.50000000      -2.50000000      -2.50000000      -2.50000000      -2.50000000      -2.50000000      -2.50000000      -2.50000000      -2.50000000      -2.50000000      -2.50000000      -2.50000000      -2.50000000      -2.50000000       0.46110510       0.50000000
         0.50000000       0.50000000       0.45847250       0.50000000       0.45646538       0.50000000       0.50000000       0.50000000       0.50000000       0.50000000       0.50000000       0.50000000       0.50000000       0.50000000       0.50000000       0.50000000       0.50000000       0.50000000       0.50000000       0.50000000
         0.50000000       0.50000000      -0.50000000      -0.50000000      -0.50000000      -0.50000000      -0.50000000      -0.50000000      -0.50000000      -0.50000000      -0.50000000      -0.50000000      -0.50000000      -0.50000000      -0.50000000      -0.50000000       0.50000000       0.50000000       0.50000000       0.50000000
         0.50000000       0.50000000       0.50000000       0.50000000       0.50000000       0.50000000       0.50000000       0.50000000       0.50000000       0.50000000       0.50000000       0.50000000       0.50000000       0.50000000       0.50000000       0.50000000       0.50000000       0.50000000       0.50000000       0.50000000
         0.50000000       0.50000000       0.50000000       0.50000000       0.50000000       0.50000000       0.50000000       0.50000000       0.81813288       0.80663142       0.83332149       0.82286031       0.79109285       0.77118768       0.80839392       0.78957611       0.84989236       0.84076600       0.86776882       0.86024931
         0.82776128       0.81055640       0.84907195       0.83398933       0.74647406       0.71639966       0.76590289       0.73667848       0.68036559       0.63791512       0.70103219       0.65806806       0.78863886       0.76122967       0.81455397       0.79000431       0.72324594       0.58912666       0.53523568       0.60728814