# File generated by Flopy version 3.9.1 on 02/12/2026 at 10:43:57.
BEGIN options
  SAVE_FLOWS
END options

BEGIN packages
  disu6  DISU_model.disu  disu
  ic6  DISU_model.ic  ic
  chd6  DISU_model.chd  chd
  npf6  DISU_model.npf  npf
  wel6  DISU_model.wel  well_casec
  rch6  quadtree_caseC.rch  rch
  evt6  DISU_model.evt  evt
  oc6  DISU_model.oc  oc
END packages

