# File generated by Flopy version 3.9.1 on 02/12/2026 at 10:44:07.
BEGIN options
  SAVE_FLOWS
END options

BEGIN dimensions
  MAXBOUND  12409
  NSEG  1
END dimensions

BEGIN period  1
  405       6.00000000  7.09766533E-09       2.00000000
  406       6.00000000  6.74085333E-09       2.00000000
  417       3.00000000  6.74085333E-09       2.00000000
  418       3.00000000  6.74085333E-09       2.00000000
  420       3.00000000  6.74085333E-09       2.00000000
  421       3.00000000  6.74085333E-09       2.00000000
  422       3.00000000  6.74085333E-09       2.00000000
  431      10.00000000  6.74085333E-09       2.00000000
  432      10.00000000  6.74085333E-09       2.00000000
  433      10.00000000  6.74085333E-09       2.00000000
  434      10.00000000  6.74085333E-09       2.00000000
  435      10.00000000  6.74085333E-09       2.00000000
  444       7.00000000  6.74085333E-09       2.00000000
  445       7.00000000  6.74085333E-09       2.00000000
  446       7.00000000  6.74085333E-09       2.00000000
  447       7.00000000  6.74085333E-09       2.00000000
  450       7.00000000  6.74085333E-09       2.00000000
  451       7.00000000  6.53688045E-09       2.00000000
  480       1.00000000  6.53688045E-09       2.00000000
  491       0.00000000  6.53688045E-09       2.00000000
  492       0.00000000  6.53688045E-09       2.00000000
  494       0.00000000  6.53688045E-09       2.00000000
  495       0.00000000  6.53688045E-09       2.00000000
  496       0.00000000  6.53688045E-09       2.00000000
  505       7.00000000  6.42584567E-09       2.00000000
  506       7.00000000  6.42584567E-09       2.00000000
  507       7.00000000  6.42584567E-09       2.00000000
  508       7.00000000  6.42584567E-09       2.00000000
  509       7.00000000  6.42584567E-09       2.00000000
  515       7.00000000  6.42584567E-09       2.00000000
  516       7.00000000  6.42584567E-09       2.00000000
  519       5.00000000  6.42584567E-09       2.00000000
  520       5.00000000  6.42584567E-09       2.00000000
  526       1.00000000  6.30035597E-09       2.00000000
  527       1.00000000  6.30035597E-09       2.00000000
  536       3.00000000  6.30035597E-09       2.00000000
  537       3.00000000  6.30035597E-09       2.00000000
  546       8.00000000  6.30035597E-09       2.00000000
  547       8.00000000  6.30035597E-09       2.00000000
  548       8.00000000  6.30035597E-09       2.00000000
  549       8.00000000  6.30035597E-09       2.00000000
  550       8.00000000  6.30035597E-09       2.00000000
  560       4.00000000  6.54335657E-09       2.00000000
  561       4.00000000  6.30035597E-09       2.00000000
  562       4.00000000  6.54335657E-09       2.00000000
  565       4.00000000  6.54335657E-09       2.00000000
  566       4.00000000  6.54335657E-09       2.00000000
  577       9.00000000  6.54335657E-09       2.00000000
  578       9.00000000  6.54335657E-09       2.00000000
  579       9.00000000  6.54335657E-09       2.00000000
  580       9.00000000  6.54335657E-09       2.00000000
  581       9.00000000  6.54335657E-09       2.00000000
  582       9.00000000  6.54335657E-09       2.00000000
  591       7.00000000  6.54335657E-09       2.00000000
  592       7.00000000  6.54335657E-09       2.00000000
  593       7.00000000  6.54335657E-09       2.00000000
  594       7.00000000  6.54335657E-09       2.00000000
  597       7.00000000  6.54335657E-09       2.00000000
  598       7.00000000  6.54335657E-09       2.00000000
  609       2.00000000  6.54335657E-09       2.00000000
  649      10.00000000  6.97645450E-09       2.00000000
  660       9.00000000  6.97645450E-09       2.00000000
  661       9.00000000  6.97645450E-09       2.00000000
  664       9.00000000  6.97645450E-09       2.00000000
  665       9.00000000  7.09766533E-09       2.00000000
  676       8.00000000  7.09766533E-09       2.00000000
  677       8.00000000  7.09766533E-09       2.00000000
  678       8.00000000  7.09766533E-09       2.00000000
  679       8.00000000  7.09766533E-09       2.00000000
  680       8.00000000  7.09766533E-09       2.00000000
  681       8.00000000  7.09766533E-09       2.00000000
  684       9.00000000  7.09766533E-09       2.00000000
  685       9.00000000  7.09766533E-09       2.00000000
  687       9.00000000  7.09766533E-09       2.00000000
  688       9.00000000  7.09766533E-09       2.00000000
  689       9.00000000  7.09766533E-09       2.00000000
  690       9.00000000  7.09766533E-09       2.00000000
  691       9.00000000  7.09766533E-09       2.00000000
  692       9.00000000  7.09766533E-09       2.00000000
  693       9.00000000  7.09766533E-09       2.00000000
  694       9.00000000  7.09766533E-09       2.00000000
  695       9.00000000  7.09766533E-09       2.00000000
  696       9.00000000  6.74085333E-09       2.00000000
  697       9.00000000  7.09766533E-09       2.00000000
  698       9.00000000  6.74085333E-09       2.00000000
  699      10.00000000  6.74085333E-09       2.00000000
  700      10.00000000  6.74085333E-09       2.00000000
  701      10.00000000  6.74085333E-09       2.00000000
  702      10.00000000  6.74085333E-09       2.00000000
  703       9.00000000  6.74085333E-09       2.00000000
  704       9.00000000  6.74085333E-09       2.00000000
  705       9.00000000  6.74085333E-09       2.00000000
  706       9.00000000  6.74085333E-09       2.00000000
  707       4.00000000  6.74085333E-09       2.00000000
  708       4.00000000  6.74085333E-09       2.00000000
  709       4.00000000  6.74085333E-09       2.00000000
  710       4.00000000  6.74085333E-09       2.00000000
  711       4.00000000  6.53688045E-09       2.00000000
  712       4.00000000  6.53688045E-09       2.00000000
  713       4.00000000  6.53688045E-09       2.00000000
  714       4.00000000  6.53688045E-09       2.00000000
  715       4.00000000  6.53688045E-09       2.00000000
  716       4.00000000  6.53688045E-09       2.00000000
  717       4.00000000  6.53688045E-09       2.00000000
  718       4.00000000  6.53688045E-09       2.00000000
  719       4.00000000  6.53688045E-09       2.00000000
  720       4.00000000  6.53688045E-09       2.00000000
  721       4.00000000  6.53688045E-09       2.00000000
  722       3.00000000  6.53688045E-09       2.00000000
  723       3.00000000  6.53688045E-09       2.00000000
  724       3.00000000  6.53688045E-09       2.00000000
  725       3.00000000  6.53688045E-09       2.00000000
  726       2.00000000  6.42584567E-09       2.00000000
  727       2.00000000  6.42584567E-09       2.00000000
  728       2.00000000  6.42584567E-09       2.00000000
  729       2.00000000  6.42584567E-09       2.00000000
  730       4.00000000  6.42584567E-09       2.00000000
  731       6.00000000  6.42584567E-09       2.00000000
  732       5.00000000  6.37084425E-09       2.00000000
  733       2.00000000  6.37084425E-09       2.00000000
  734       5.00000000  6.37084425E-09       2.00000000
  735       4.00000000  6.30035597E-09       2.00000000
  736       8.00000000  6.30035597E-09       2.00000000
  737       8.00000000  6.30035597E-09       2.00000000
  738       8.00000000  6.30035597E-09       2.00000000
  739       8.00000000  6.30035597E-09       2.00000000
  740       8.00000000  6.30035597E-09       2.00000000
  741       9.00000000  6.54335657E-09       2.00000000
  742       9.00000000  6.54335657E-09       2.00000000
  743       9.00000000  6.54335657E-09       2.00000000
  744       9.00000000  6.54335657E-09       2.00000000
  745       9.00000000  6.54335657E-09       2.00000000
  746       9.00000000  6.54335657E-09       2.00000000
  747       9.00000000  6.54335657E-09       2.00000000
  748       9.00000000  6.54335657E-09       2.00000000
  749      12.00000000  6.54335657E-09       2.00000000
  750      12.00000000  6.54335657E-09       2.00000000
  751      12.00000000  6.54335657E-09       2.00000000
  752      12.00000000  6.54335657E-09       2.00000000
  753       9.00000000  6.54335657E-09       2.00000000
  754       9.00000000  6.61524630E-09       2.00000000
  755       9.00000000  6.54335657E-09       2.00000000
  756       9.00000000  6.61524630E-09       2.00000000
  759       9.00000000  6.61524630E-09       2.00000000
  761       9.00000000  6.61524630E-09       2.00000000
  762       9.00000000  6.61524630E-09       2.00000000
  764       9.00000000  6.61524630E-09       2.00000000
  765       9.00000000  6.61524630E-09       2.00000000
  832       9.00000000  6.97645450E-09       2.00000000
  833       9.00000000  6.97645450E-09       2.00000000
  834       9.00000000  6.97645450E-09       2.00000000
  840       9.00000000  6.97645450E-09       2.00000000
  842       9.00000000  6.97645450E-09       2.00000000
  843       9.00000000  6.97645450E-09       2.00000000
  844       9.00000000  6.97645450E-09       2.00000000
  845       9.00000000  6.97645450E-09       2.00000000
  846       9.00000000  6.97645450E-09       2.00000000
  847       9.00000000  6.97645450E-09       2.00000000
  848       9.00000000  6.97645450E-09       2.00000000
  849       9.00000000  6.97645450E-09       2.00000000
  850      10.00000000  6.97645450E-09       2.00000000
  851      10.00000000  7.09766533E-09       2.00000000
  852      10.00000000  6.97645450E-09       2.00000000
  853      10.00000000  7.09766533E-09       2.00000000
  854       9.00000000  7.09766533E-09       2.00000000
  855       9.00000000  7.09766533E-09       2.00000000
  856       9.00000000  7.09766533E-09       2.00000000
  857       9.00000000  7.09766533E-09       2.00000000
  858       8.00000000  7.09766533E-09       2.00000000
  859       5.00000000  7.09766533E-09       2.00000000
  860       8.00000000  6.74085333E-09       2.00000000
  861       7.00000000  6.74085333E-09       2.00000000
  862       7.00000000  6.74085333E-09       2.00000000
  863       5.00000000  6.53688045E-09       2.00000000
  864       6.00000000  6.53688045E-09       2.00000000
  865       0.00000000  6.53688045E-09       2.00000000
  866       7.00000000  6.42584567E-09       2.00000000
  867       8.00000000  6.42584567E-09       2.00000000
  868       8.00000000  6.42584567E-09       2.00000000
  869       4.00000000  6.37084425E-09       2.00000000
  870       5.00000000  6.37084425E-09       2.00000000
  871       6.00000000  6.37084425E-09       2.00000000
  872       5.00000000  6.30035597E-09       2.00000000
  873      11.00000000  6.30035597E-09       2.00000000
  874      13.00000000  6.30035597E-09       2.00000000
  875      13.00000000  6.54335657E-09       2.00000000
  876      12.00000000  6.54335657E-09       2.00000000
  877      12.00000000  6.54335657E-09       2.00000000
  878       3.00000000  6.61524630E-09       2.00000000
  879       3.00000000  6.61524630E-09       2.00000000
  880       3.00000000  6.61524630E-09       2.00000000
  881       3.00000000  6.61524630E-09       2.00000000
  882       3.00000000  6.61524630E-09       2.00000000
  883       3.00000000  6.61524630E-09       2.00000000
  884       3.00000000  6.61524630E-09       2.00000000
  887      10.00000000  6.61524630E-09       2.00000000
  888      10.00000000  6.61524630E-09       2.00000000
  893      10.00000000  6.61524630E-09       2.00000000
  894      10.00000000  6.61524630E-09       2.00000000
  895      10.00000000  6.61524630E-09       2.00000000
  896      10.00000000  6.61524630E-09       2.00000000
  897      10.00000000  6.61524630E-09       2.00000000
  908      -7.00000000  6.61524630E-09       2.00000000
  1019       1.00000000  6.97645450E-09       2.00000000
  1020       1.00000000  6.97645450E-09       2.00000000
  1021       1.00000000  6.97645450E-09       2.00000000
  1025       1.00000000  6.97645450E-09       2.00000000
  1026       1.00000000  6.97645450E-09       2.00000000
  1027       1.00000000  6.97645450E-09       2.00000000
  1028       1.00000000  6.97645450E-09       2.00000000
  1029       1.00000000  6.97645450E-09       2.00000000
  1030       7.00000000  6.97645450E-09       2.00000000
  1031       7.00000000  6.97645450E-09       2.00000000
  1032       7.00000000  6.97645450E-09       2.00000000
  1033       7.00000000  6.97645450E-09       2.00000000
  1034       3.00000000  6.97645450E-09       2.00000000
  1035       4.00000000  7.09766533E-09       2.00000000
  1036       0.00000000  7.09766533E-09       2.00000000
  1037       0.00000000  7.09766533E-09       2.00000000
  1038       4.00000000  6.74085333E-09       2.00000000
  1039       5.00000000  6.74085333E-09       2.00000000
  1040       5.00000000  6.74085333E-09       2.00000000
  1041       2.00000000  6.53688045E-09       2.00000000
  1042       5.00000000  6.53688045E-09       2.00000000
  1043       1.00000000  6.53688045E-09       2.00000000
  1044       6.00000000  6.42584567E-09       2.00000000
  1045       3.00000000  6.42584567E-09       2.00000000
  1046       7.00000000  6.42584567E-09       2.00000000
  1047       3.00000000  6.37084425E-09       2.00000000
  1048       7.00000000  6.37084425E-09       2.00000000
  1049       8.00000000  6.37084425E-09       2.00000000
  1050       7.00000000  6.30035597E-09       2.00000000
  1051      10.00000000  6.30035597E-09       2.00000000
  1052      18.00000000  6.30035597E-09       2.00000000
  1053      19.00000000  6.54335657E-09       2.00000000
  1054      15.00000000  6.54335657E-09       2.00000000
  1055      14.00000000  6.54335657E-09       2.00000000
  1056      14.00000000  6.61524630E-09       2.00000000
  1057      17.00000000  6.61524630E-09       2.00000000
  1058      17.00000000  6.61524630E-09       2.00000000
  1059      17.00000000  6.61524630E-09       2.00000000
  1060      17.00000000  6.61524630E-09       2.00000000
  1061      16.00000000  6.61524630E-09       2.00000000
  1062      16.00000000  6.61524630E-09       2.00000000
  1063      16.00000000  6.61524630E-09       2.00000000
  1064      16.00000000  6.61524630E-09       2.00000000
  1067      16.00000000  6.61524630E-09       2.00000000
  1068      16.00000000  6.61524630E-09       2.00000000
  1069      16.00000000  6.61524630E-09       2.00000000
  1070      16.00000000  6.61524630E-09       2.00000000
  1073      17.00000000  6.61524630E-09       2.00000000
  1074      17.00000000  6.90646795E-09       2.00000000
  1077      17.00000000  6.90646795E-09       2.00000000
  1079      17.00000000  6.61524630E-09       2.00000000
  1080      17.00000000  6.90646795E-09       2.00000000
  1084      11.00000000  6.90646795E-09       2.00000000
  1087      11.00000000  6.90646795E-09       2.00000000
  1088      11.00000000  6.90646795E-09       2.00000000
  1089      11.00000000  6.90646795E-09       2.00000000
  1090      11.00000000  6.90646795E-09       2.00000000
  1099      13.00000000  6.90646795E-09       2.00000000
  1101      13.00000000  6.90646795E-09       2.00000000
  1102      13.00000000  6.90646795E-09       2.00000000
  1105      13.00000000  6.90646795E-09       2.00000000
  1150       6.00000000  7.31867373E-09       2.00000000
  1151       6.00000000  7.31867373E-09       2.00000000
  1152       6.00000000  7.31867373E-09       2.00000000
  1153       6.00000000  7.31867373E-09       2.00000000
  1154       6.00000000  7.31867373E-09       2.00000000
  1165       7.00000000  7.31867373E-09       2.00000000
  1166       7.00000000  7.31867373E-09       2.00000000
  1169       7.00000000  7.53025860E-09       2.00000000
  1170       7.00000000  7.53025860E-09       2.00000000
  1190       0.00000000  7.10413967E-09       2.00000000
  1199      -3.00000000  7.10413967E-09       2.00000000
  1200      -3.00000000  7.10413967E-09       2.00000000
  1201      -3.00000000  7.10413967E-09       2.00000000
  1202      -3.00000000  7.10413967E-09       2.00000000
  1203      -3.00000000  6.56883802E-09       2.00000000
  1204      -3.00000000  6.56883802E-09       2.00000000
  1205      -3.00000000  6.56883802E-09       2.00000000
  1206      -3.00000000  6.56883802E-09       2.00000000
  1208       2.00000000  6.97645450E-09       2.00000000
  1209       2.00000000  6.97645450E-09       2.00000000
  1210       2.00000000  6.97645450E-09       2.00000000
  1211       2.00000000  6.97645450E-09       2.00000000
  1212       2.00000000  6.56883802E-09       2.00000000
  1213       2.00000000  6.56883802E-09       2.00000000
  1214       7.00000000  6.97645450E-09       2.00000000
  1215       6.00000000  6.97645450E-09       2.00000000
  1216       9.00000000  7.09766533E-09       2.00000000
  1217      -1.00000000  7.09766533E-09       2.00000000
  1218       1.00000000  7.09766533E-09       2.00000000
  1219       3.00000000  6.74085333E-09       2.00000000
  1220       4.00000000  6.74085333E-09       2.00000000
  1221       5.00000000  6.74085333E-09       2.00000000
  1222       4.00000000  6.53688045E-09       2.00000000
  1223       4.00000000  6.53688045E-09       2.00000000
  1224       6.00000000  6.53688045E-09       2.00000000
  1225       8.00000000  6.42584567E-09       2.00000000
  1226       4.00000000  6.42584567E-09       2.00000000
  1227      15.00000000  6.42584567E-09       2.00000000
  1228       5.00000000  6.37084425E-09       2.00000000
  1229       9.00000000  6.37084425E-09       2.00000000
  1230       7.00000000  6.37084425E-09       2.00000000
  1231      10.00000000  6.30035597E-09       2.00000000
  1232      19.00000000  6.30035597E-09       2.00000000
  1233      19.00000000  6.30035597E-09       2.00000000
  1234      26.00000000  6.54335657E-09       2.00000000
  1235      20.00000000  6.54335657E-09       2.00000000
  1236      20.00000000  6.54335657E-09       2.00000000
  1237      21.00000000  6.61524630E-09       2.00000000
  1238      19.00000000  6.61524630E-09       2.00000000
  1239      20.00000000  6.61524630E-09       2.00000000
  1240      19.00000000  6.90646795E-09       2.00000000
  1241       5.00000000  6.90646795E-09       2.00000000
  1242       9.00000000  6.90646795E-09       2.00000000
  1243       9.00000000  6.90646795E-09       2.00000000
  1244       9.00000000  6.90646795E-09       2.00000000
  1245       9.00000000  6.90646795E-09       2.00000000
  1246       7.00000000  6.90646795E-09       2.00000000
  1247       7.00000000  7.31867373E-09       2.00000000
  1249       7.00000000  7.31867373E-09       2.00000000
  1250       7.00000000  7.31867373E-09       2.00000000
  1251       7.00000000  6.90646795E-09       2.00000000
  1252       7.00000000  7.31867373E-09       2.00000000
  1254       6.00000000  7.31867373E-09       2.00000000
  1255       6.00000000  7.31867373E-09       2.00000000
  1256       6.00000000  7.31867373E-09       2.00000000
  1257       6.00000000  7.31867373E-09       2.00000000
  1258       6.00000000  7.31867373E-09       2.00000000
  1259       6.00000000  7.31867373E-09       2.00000000
  1260       6.00000000  7.31867373E-09       2.00000000
  1261       6.00000000  7.31867373E-09       2.00000000
  1262       6.00000000  7.31867373E-09       2.00000000
  1263       7.00000000  7.31867373E-09       2.00000000
  1264       7.00000000  7.31867373E-09       2.00000000
  1265       7.00000000  7.31867373E-09       2.00000000
  1266       7.00000000  7.31867373E-09       2.00000000
  1267       9.00000000  7.31867373E-09       2.00000000
  1268       9.00000000  7.53025860E-09       2.00000000
  1269       9.00000000  7.31867373E-09       2.00000000
  1270       9.00000000  7.53025860E-09       2.00000000
  1307      -1.00000000  7.10413967E-09       2.00000000
  1311      -1.00000000  7.10413967E-09       2.00000000
  1312      -1.00000000  7.10413967E-09       2.00000000
  1313      -1.00000000  7.10413967E-09       2.00000000
  1314      -1.00000000  7.10413967E-09       2.00000000
  1315      -1.00000000  7.10413967E-09       2.00000000
  1317      -1.00000000  7.10413967E-09       2.00000000
  1318      -1.00000000  7.10413967E-09       2.00000000
  1319      -1.00000000  7.10413967E-09       2.00000000
  1320      -1.00000000  7.10413967E-09       2.00000000
  1321       1.00000000  7.10413967E-09       2.00000000
  1322       1.00000000  6.56883802E-09       2.00000000
  1323       1.00000000  7.10413967E-09       2.00000000
  1324       1.00000000  6.56883802E-09       2.00000000
  1325       1.00000000  6.56883802E-09       2.00000000
  1326       7.00000000  6.56883802E-09       2.00000000
  1327       8.00000000  6.56883802E-09       2.00000000
  1328      11.00000000  6.41587800E-09       2.00000000
  1329       9.00000000  6.41587800E-09       2.00000000
  1330       4.00000000  6.41587800E-09       2.00000000
  1331       3.00000000  6.30264882E-09       2.00000000
  1332       3.00000000  6.30264882E-09       2.00000000
  1333       2.00000000  6.30264882E-09       2.00000000
  1334       7.00000000  6.16005823E-09       2.00000000
  1335       5.00000000  6.16005823E-09       2.00000000
  1336       7.00000000  6.16005823E-09       2.00000000
  1337      19.00000000  5.99492552E-09       2.00000000
  1338      11.00000000  5.99492552E-09       2.00000000
  1339       7.00000000  5.99492552E-09       2.00000000
  1340      10.00000000  5.83433187E-09       2.00000000
  1341       9.00000000  5.83433187E-09       2.00000000
  1342      16.00000000  5.83433187E-09       2.00000000
  1343      15.00000000  5.64273895E-09       2.00000000
  1344      22.00000000  5.64273895E-09       2.00000000
  1345      14.00000000  5.64273895E-09       2.00000000
  1346      24.00000000  5.68884717E-09       2.00000000
  1347      20.00000000  5.68884717E-09       2.00000000
  1348      26.00000000  5.68884717E-09       2.00000000
  1349      28.00000000  5.87542925E-09       2.00000000
  1350      22.00000000  5.87542925E-09       2.00000000
  1351      26.00000000  5.87542925E-09       2.00000000
  1352      20.00000000  6.10299350E-09       2.00000000
  1353       8.00000000  6.10299350E-09       2.00000000
  1354      10.00000000  6.10299350E-09       2.00000000
  1355       9.00000000  6.42700788E-09       2.00000000
  1356       7.00000000  6.42700788E-09       2.00000000
  1357       5.00000000  6.42700788E-09       2.00000000
  1358       8.00000000  6.69261762E-09       2.00000000
  1386      -3.00000000  7.79090973E-09       2.00000000
  1387      -3.00000000  7.79090973E-09       2.00000000
  1398      -1.00000000  7.79090973E-09       2.00000000
  1399      -1.00000000  7.79090973E-09       2.00000000
  1401      -1.00000000  7.79090973E-09       2.00000000
  1402      -1.00000000  7.79090973E-09       2.00000000
  1403      -1.00000000  7.79090973E-09       2.00000000
  1410      -2.00000000  7.10413967E-09       2.00000000
  1411      -2.00000000  7.10413967E-09       2.00000000
  1412      -2.00000000  7.79090973E-09       2.00000000
  1413      -2.00000000  7.79090973E-09       2.00000000
  1414      -2.00000000  7.79090973E-09       2.00000000
  1415      -2.00000000  7.79090973E-09       2.00000000
  1416      -2.00000000  7.10413967E-09       2.00000000
  1419       0.00000000  7.10413967E-09       2.00000000
  1420       0.00000000  7.10413967E-09       2.00000000
  1421       0.00000000  7.10413967E-09       2.00000000
  1422       0.00000000  7.10413967E-09       2.00000000
  1423       0.00000000  7.10413967E-09       2.00000000
  1424       0.00000000  7.10413967E-09       2.00000000
  1425       0.00000000  7.10413967E-09       2.00000000
  1426       0.00000000  7.10413967E-09       2.00000000
  1427      -1.00000000  7.10413967E-09       2.00000000
  1428      -1.00000000  7.10413967E-09       2.00000000
  1429      -1.00000000  7.10413967E-09       2.00000000
  1430      -1.00000000  7.10413967E-09       2.00000000
  1431       8.00000000  7.10413967E-09       2.00000000
  1432       4.00000000  6.56883802E-09       2.00000000
  1433       6.00000000  6.56883802E-09       2.00000000
  1434       6.00000000  6.56883802E-09       2.00000000
  1435       5.00000000  6.41587800E-09       2.00000000
  1436       6.00000000  6.41587800E-09       2.00000000
  1437       6.00000000  6.41587800E-09       2.00000000
  1438       4.00000000  6.30264882E-09       2.00000000
  1439       3.00000000  6.30264882E-09       2.00000000
  1440       2.00000000  6.30264882E-09       2.00000000
  1441       9.00000000  6.16005823E-09       2.00000000
  1442       6.00000000  6.16005823E-09       2.00000000
  1443       1.00000000  6.16005823E-09       2.00000000
  1444       8.00000000  5.99492552E-09       2.00000000
  1445       5.00000000  5.99492552E-09       2.00000000
  1446      10.00000000  5.99492552E-09       2.00000000
  1447       7.00000000  5.83433187E-09       2.00000000
  1448       9.00000000  5.83433187E-09       2.00000000
  1449      10.00000000  5.83433187E-09       2.00000000
  1450      20.00000000  5.64273895E-09       2.00000000
  1451      21.00000000  5.64273895E-09       2.00000000
  1452      27.00000000  5.64273895E-09       2.00000000
  1453      24.00000000  5.68884717E-09       2.00000000
  1454      29.00000000  5.68884717E-09       2.00000000
  1455      29.00000000  5.68884717E-09       2.00000000
  1456      27.00000000  5.87542925E-09       2.00000000
  1457      24.00000000  5.87542925E-09       2.00000000
  1458      21.00000000  5.87542925E-09       2.00000000
  1459      19.00000000  6.10299350E-09       2.00000000
  1460       9.00000000  6.10299350E-09       2.00000000
  1461      14.00000000  6.10299350E-09       2.00000000
  1462      14.00000000  6.42700788E-09       2.00000000
  1463      10.00000000  6.42700788E-09       2.00000000
  1464       4.00000000  6.42700788E-09       2.00000000
  1465       9.00000000  6.69261762E-09       2.00000000
  1551       0.00000000  7.79090973E-09       2.00000000
  1553       0.00000000  7.79090973E-09       2.00000000
  1554       0.00000000  7.79090973E-09       2.00000000
  1555       0.00000000  7.79090973E-09       2.00000000
  1556       0.00000000  7.79090973E-09       2.00000000
  1557       0.00000000  7.79090973E-09       2.00000000
  1558       0.00000000  7.79090973E-09       2.00000000
  1559       0.00000000  7.79090973E-09       2.00000000
  1560       0.00000000  7.79090973E-09       2.00000000
  1561      -1.00000000  7.79090973E-09       2.00000000
  1562      -1.00000000  7.79090973E-09       2.00000000
  1563      -1.00000000  7.79090973E-09       2.00000000
  1564      -1.00000000  7.79090973E-09       2.00000000
  1565      -3.00000000  7.79090973E-09       2.00000000
  1566      -3.00000000  7.10413967E-09       2.00000000
  1567      -3.00000000  7.79090973E-09       2.00000000
  1568      -3.00000000  7.10413967E-09       2.00000000
  1569       0.00000000  7.10413967E-09       2.00000000
  1570      18.00000000  7.10413967E-09       2.00000000
  1571       5.00000000  7.10413967E-09       2.00000000
  1572       5.00000000  6.56883802E-09       2.00000000
  1573       4.00000000  6.56883802E-09       2.00000000
  1574       2.00000000  6.56883802E-09       2.00000000
  1575       2.00000000  6.41587800E-09       2.00000000
  1576       5.00000000  6.41587800E-09       2.00000000
  1577       6.00000000  6.41587800E-09       2.00000000
  1578       5.00000000  6.30264882E-09       2.00000000
  1579       4.00000000  6.30264882E-09       2.00000000
  1580       3.00000000  6.30264882E-09       2.00000000
  1581      12.00000000  6.16005823E-09       2.00000000
  1582       6.00000000  6.16005823E-09       2.00000000
  1583       4.00000000  6.16005823E-09       2.00000000
  1584       4.00000000  5.99492552E-09       2.00000000
  1585      10.00000000  5.99492552E-09       2.00000000
  1586      10.00000000  5.99492552E-09       2.00000000
  1587       5.00000000  5.83433187E-09       2.00000000
  1588       9.00000000  5.83433187E-09       2.00000000
  1589      11.00000000  5.83433187E-09       2.00000000
  1590      21.00000000  5.64273895E-09       2.00000000
  1591      16.00000000  5.64273895E-09       2.00000000
  1592      25.00000000  5.64273895E-09       2.00000000
  1593      10.00000000  5.68884717E-09       2.00000000
  1594      28.00000000  5.68884717E-09       2.00000000
  1595      28.00000000  5.68884717E-09       2.00000000
  1596      27.00000000  5.87542925E-09       2.00000000
  1597      23.00000000  5.87542925E-09       2.00000000
  1598      20.00000000  5.87542925E-09       2.00000000
  1599      20.00000000  6.10299350E-09       2.00000000
  1600      13.00000000  6.10299350E-09       2.00000000
  1601      13.00000000  6.10299350E-09       2.00000000
  1602      11.00000000  6.42700788E-09       2.00000000
  1603      10.00000000  6.42700788E-09       2.00000000
  1604       6.00000000  6.42700788E-09       2.00000000
  1605      10.00000000  6.69261762E-09       2.00000000
  1704       1.00000000  7.18752668E-09       2.00000000
  1707       1.00000000  7.18752668E-09       2.00000000
  1708       1.00000000  7.18752668E-09       2.00000000
  1719       2.00000000  7.18752668E-09       2.00000000
  1720       2.00000000  7.18752668E-09       2.00000000
  1723       2.00000000  7.18752668E-09       2.00000000
  1724       2.00000000  7.18752668E-09       2.00000000
  1735       2.00000000  7.18752668E-09       2.00000000
  1736       2.00000000  7.18752668E-09       2.00000000
  1737       2.00000000  7.18752668E-09       2.00000000
  1746       5.00000000  7.05962747E-09       2.00000000
  1747       5.00000000  7.05962747E-09       2.00000000
  1750       5.00000000  7.05962747E-09       2.00000000
  1751       5.00000000  7.05962747E-09       2.00000000
  1756       3.00000000  7.79090973E-09       2.00000000
  1757       8.00000000  7.79090973E-09       2.00000000
  1758       2.00000000  7.79090973E-09       2.00000000
  1759       0.00000000  7.10413967E-09       2.00000000
  1760       5.00000000  7.10413967E-09       2.00000000
  1761       2.00000000  7.10413967E-09       2.00000000