# File generated by Flopy version 3.9.1 on 02/12/2026 at 10:44:07.
BEGIN options
  SAVE_FLOWS
END options

BEGIN dimensions
  MAXBOUND  9044
END dimensions

BEGIN period  1
  1 0.00000000E+00
  2 0.00000000E+00
  3 0.00000000E+00
  4 0.00000000E+00
  5 0.00000000E+00
  6 0.00000000E+00
  7 0.00000000E+00
  8 0.00000000E+00
  9 0.00000000E+00
  10 0.00000000E+00
  11 0.00000000E+00
  12 0.00000000E+00
  13 0.00000000E+00
  14 0.00000000E+00
  15 0.00000000E+00
  16 0.00000000E+00
  17 0.00000000E+00
  18 0.00000000E+00
  19 0.00000000E+00
  20 0.00000000E+00
  21 0.00000000E+00
  22 0.00000000E+00
  23 0.00000000E+00
  24 0.00000000E+00
  25 0.00000000E+00
  26 0.00000000E+00
  27 0.00000000E+00
  28 0.00000000E+00
  29 0.00000000E+00
  30 0.00000000E+00
  31 0.00000000E+00
  32 0.00000000E+00
  33 0.00000000E+00
  34 0.00000000E+00
  35 0.00000000E+00
  36 0.00000000E+00
  37 0.00000000E+00
  38 0.00000000E+00
  39 0.00000000E+00
  40 0.00000000E+00
  41 0.00000000E+00
  42 0.00000000E+00
  43 0.00000000E+00
  44 0.00000000E+00
  45 0.00000000E+00
  46 0.00000000E+00
  47 0.00000000E+00
  48 0.00000000E+00
  49 0.00000000E+00
  50 0.00000000E+00
  51 0.00000000E+00
  52 0.00000000E+00
  53 0.00000000E+00
  54 0.00000000E+00
  55 0.00000000E+00
  56 0.00000000E+00
  57 0.00000000E+00
  58 0.00000000E+00
  59 0.00000000E+00
  60 0.00000000E+00
  61 0.00000000E+00
  62 0.00000000E+00
  63 0.00000000E+00
  64 0.00000000E+00
  65 0.00000000E+00
  66 0.00000000E+00
  67 0.00000000E+00
  68 0.00000000E+00
  69 0.00000000E+00
  70 0.00000000E+00
  71 0.00000000E+00
  72 0.00000000E+00
  73 0.00000000E+00
  74 0.00000000E+00
  75 0.00000000E+00
  76 0.00000000E+00
  77 0.00000000E+00
  78 0.00000000E+00
  79 0.00000000E+00
  80 0.00000000E+00
  81 0.00000000E+00
  82 0.00000000E+00
  83 0.00000000E+00
  84 0.00000000E+00
  85 0.00000000E+00
  86 0.00000000E+00
  87 0.00000000E+00
  88 0.00000000E+00
  89 0.00000000E+00
  90 0.00000000E+00
  91 0.00000000E+00
  92 0.00000000E+00
  93 0.00000000E+00
  97 0.00000000E+00
  98 0.00000000E+00
  99 0.00000000E+00
  100 0.00000000E+00
  101 0.00000000E+00
  102 0.00000000E+00
  103 0.00000000E+00
  104 0.00000000E+00
  106 0.00000000E+00
  109 0.00000000E+00
  110 0.00000000E+00
  111 0.00000000E+00
  112 0.00000000E+00
  113 0.00000000E+00
  114 0.00000000E+00
  115 0.00000000E+00
  116 0.00000000E+00
  117 0.00000000E+00
  118 0.00000000E+00
  119 0.00000000E+00
  120 0.00000000E+00
  121 0.00000000E+00
  122 0.00000000E+00
  123 0.00000000E+00
  124 0.00000000E+00
  125 0.00000000E+00
  126 0.00000000E+00
  127 0.00000000E+00
  128 0.00000000E+00
  129 0.00000000E+00
  130 0.00000000E+00
  131 0.00000000E+00
  132 0.00000000E+00
  133 0.00000000E+00
  134 0.00000000E+00
  135 0.00000000E+00
  136 0.00000000E+00
  137 0.00000000E+00
  138 0.00000000E+00
  139 0.00000000E+00
  140 0.00000000E+00
  141 0.00000000E+00
  142 0.00000000E+00
  143 0.00000000E+00
  144 0.00000000E+00
  145 0.00000000E+00
  146 0.00000000E+00
  147 0.00000000E+00
  148 0.00000000E+00
  149 0.00000000E+00
  150 0.00000000E+00
  151 0.00000000E+00
  152 0.00000000E+00
  153 0.00000000E+00
  154 0.00000000E+00
  155 0.00000000E+00
  156 0.00000000E+00
  157 0.00000000E+00
  158 0.00000000E+00
  159 0.00000000E+00
  160 0.00000000E+00
  161 0.00000000E+00
  162 0.00000000E+00
  163 0.00000000E+00
  164 0.00000000E+00
  165 0.00000000E+00
  166 0.00000000E+00
  167 0.00000000E+00
  168 0.00000000E+00
  169 0.00000000E+00
  170 0.00000000E+00
  171 0.00000000E+00
  172 0.00000000E+00
  173 0.00000000E+00
  174 0.00000000E+00
  175 0.00000000E+00
  176 0.00000000E+00
  177 0.00000000E+00
  178 0.00000000E+00
  179 0.00000000E+00
  180 0.00000000E+00
  181 0.00000000E+00
  182 0.00000000E+00
  183 0.00000000E+00
  184 0.00000000E+00
  185 0.00000000E+00
  186 0.00000000E+00
  187 0.00000000E+00
  188 0.00000000E+00
  189 0.00000000E+00
  190 0.00000000E+00
  191 0.00000000E+00
  192 0.00000000E+00
  193 0.00000000E+00
  194 0.00000000E+00
  195 0.00000000E+00
  196 0.00000000E+00
  197 0.00000000E+00
  198 0.00000000E+00
  199 0.00000000E+00
  200 0.00000000E+00
  201 0.00000000E+00
  202 0.00000000E+00
  203 0.00000000E+00
  204 0.00000000E+00
  205 0.00000000E+00
  206 0.00000000E+00
  207 0.00000000E+00
  208 0.00000000E+00
  209 0.00000000E+00
  210 0.00000000E+00
  211 0.00000000E+00
  212 0.00000000E+00
  213 0.00000000E+00
  214 0.00000000E+00
  215 0.00000000E+00
  216 0.00000000E+00
  217 0.00000000E+00
  218 0.00000000E+00
  219 0.00000000E+00
  220 0.00000000E+00
  221 0.00000000E+00
  222 0.00000000E+00
  223 0.00000000E+00
  224 0.00000000E+00
  225 0.00000000E+00
  226 0.00000000E+00
  227 0.00000000E+00
  228 0.00000000E+00
  229 0.00000000E+00
  230 0.00000000E+00
  231 0.00000000E+00
  232 0.00000000E+00
  233 0.00000000E+00
  234 0.00000000E+00
  235 0.00000000E+00
  236 0.00000000E+00
  237 0.00000000E+00
  238 0.00000000E+00
  239 0.00000000E+00
  240 0.00000000E+00
  241 0.00000000E+00
  242 0.00000000E+00
  243 0.00000000E+00
  245 0.00000000E+00
  246 0.00000000E+00
  247 0.00000000E+00
  248 0.00000000E+00
  249 0.00000000E+00
  250 0.00000000E+00
  258 0.00000000E+00
  267 0.00000000E+00
  272 0.00000000E+00
  273 0.00000000E+00
  276 0.00000000E+00
  277 0.00000000E+00
  279 0.00000000E+00
  282 0.00000000E+00
  283 0.00000000E+00
  284 0.00000000E+00
  285 0.00000000E+00
  286 0.00000000E+00
  287 0.00000000E+00
  288 0.00000000E+00
  289 0.00000000E+00
  291 0.00000000E+00
  294 0.00000000E+00
  295 0.00000000E+00
  298 0.00000000E+00
  299 0.00000000E+00
  300 0.00000000E+00
  301 0.00000000E+00
  302 0.00000000E+00
  303 0.00000000E+00
  304 0.00000000E+00
  305 0.00000000E+00
  306 0.00000000E+00
  307 0.00000000E+00
  308 0.00000000E+00
  309 0.00000000E+00
  310 0.00000000E+00
  311 0.00000000E+00
  312 0.00000000E+00
  313 0.00000000E+00
  314 0.00000000E+00
  315 0.00000000E+00
  316 0.00000000E+00
  317 0.00000000E+00
  318 0.00000000E+00
  319 0.00000000E+00
  320 0.00000000E+00
  321 0.00000000E+00
  322 0.00000000E+00
  323 0.00000000E+00
  324 0.00000000E+00
  325 0.00000000E+00
  326 0.00000000E+00
  327 0.00000000E+00
  328 0.00000000E+00
  329 0.00000000E+00
  330 0.00000000E+00
  331 0.00000000E+00
  332 0.00000000E+00
  333 0.00000000E+00
  334 0.00000000E+00
  335 0.00000000E+00
  336 0.00000000E+00
  337 0.00000000E+00
  338 0.00000000E+00
  339 0.00000000E+00
  340 0.00000000E+00
  341 0.00000000E+00
  342 0.00000000E+00
  343 0.00000000E+00
  344 0.00000000E+00
  345 0.00000000E+00
  346 0.00000000E+00
  347 0.00000000E+00
  348 0.00000000E+00
  349 0.00000000E+00
  350 0.00000000E+00
  351 0.00000000E+00
  352 0.00000000E+00
  353 0.00000000E+00
  354 0.00000000E+00
  355 0.00000000E+00
  356 0.00000000E+00
  357 0.00000000E+00
  358 0.00000000E+00
  359 0.00000000E+00
  360 0.00000000E+00
  361 0.00000000E+00
  362 0.00000000E+00
  363 0.00000000E+00
  364 0.00000000E+00
  365 0.00000000E+00
  366 0.00000000E+00
  367 0.00000000E+00
  368 0.00000000E+00
  369 0.00000000E+00
  370 0.00000000E+00
  371 0.00000000E+00
  372 0.00000000E+00
  373 0.00000000E+00
  374 0.00000000E+00
  375 0.00000000E+00
  376 0.00000000E+00
  377 0.00000000E+00
  378 0.00000000E+00
  379 0.00000000E+00
  380 0.00000000E+00
  381 0.00000000E+00
  382 0.00000000E+00
  383 0.00000000E+00
  384 0.00000000E+00
  385 0.00000000E+00
  386 0.00000000E+00
  387 0.00000000E+00
  388 0.00000000E+00
  389 0.00000000E+00
  390 0.00000000E+00
  391 0.00000000E+00
  392 0.00000000E+00
  393 0.00000000E+00
  394 0.00000000E+00
  395 0.00000000E+00
  396 0.00000000E+00
  397 0.00000000E+00
  398 0.00000000E+00
  399 0.00000000E+00
  400 0.00000000E+00
  401 0.00000000E+00
  402 0.00000000E+00
  403 0.00000000E+00
  404 0.00000000E+00
  407 0.00000000E+00
  408 0.00000000E+00
  409 0.00000000E+00
  410 0.00000000E+00
  411 0.00000000E+00
  412 0.00000000E+00
  413 0.00000000E+00
  414 0.00000000E+00
  415 0.00000000E+00
  416 0.00000000E+00
  419 0.00000000E+00
  423 0.00000000E+00
  424 0.00000000E+00
  425 0.00000000E+00
  427 0.00000000E+00
  428 0.00000000E+00
  436 0.00000000E+00
  437 0.00000000E+00
  438 0.00000000E+00
  439 0.00000000E+00
  440 0.00000000E+00
  441 0.00000000E+00
  442 0.00000000E+00
  443 0.00000000E+00
  448 0.00000000E+00
  449 0.00000000E+00
  452 0.00000000E+00
  453 0.00000000E+00
  454 0.00000000E+00
  455 0.00000000E+00
  456 0.00000000E+00
  457 0.00000000E+00
  458 0.00000000E+00
  459 0.00000000E+00
  460 0.00000000E+00
  461 0.00000000E+00
  462 0.00000000E+00
  463 0.00000000E+00
  464 0.00000000E+00
  465 0.00000000E+00
  466 0.00000000E+00
  467 0.00000000E+00
  468 0.00000000E+00
  469 0.00000000E+00
  470 0.00000000E+00
  471 0.00000000E+00
  472 0.00000000E+00
  473 0.00000000E+00
  474 0.00000000E+00
  475 0.00000000E+00
  476 0.00000000E+00
  477 0.00000000E+00
  478 0.00000000E+00
  479 0.00000000E+00
  481 0.00000000E+00
  482 0.00000000E+00
  483 0.00000000E+00
  484 0.00000000E+00
  485 0.00000000E+00
  486 0.00000000E+00
  487 0.00000000E+00
  488 0.00000000E+00
  489 0.00000000E+00
  490 0.00000000E+00
  493 0.00000000E+00
  497 0.00000000E+00
  498 0.00000000E+00
  499 0.00000000E+00
  500 0.00000000E+00
  501 0.00000000E+00
  502 0.00000000E+00
  510 0.00000000E+00
  532 0.00000000E+00
  533 0.00000000E+00
  538 0.00000000E+00
  539 0.00000000E+00
  540 0.00000000E+00
  541 0.00000000E+00
  542 0.00000000E+00
  543 0.00000000E+00
  544 0.00000000E+00
  545 0.00000000E+00
  551 0.00000000E+00
  552 0.00000000E+00
  553 0.00000000E+00
  554 0.00000000E+00
  555 0.00000000E+00
  556 0.00000000E+00
  557 0.00000000E+00
  558 0.00000000E+00
  559 0.00000000E+00
  563 0.00000000E+00
  564 0.00000000E+00
  567 0.00000000E+00
  568 0.00000000E+00
  569 0.00000000E+00
  570 0.00000000E+00
  571 0.00000000E+00
  572 0.00000000E+00
  573 0.00000000E+00
  574 0.00000000E+00
  575 0.00000000E+00
  576 0.00000000E+00
  583 0.00000000E+00
  584 0.00000000E+00
  585 0.00000000E+00
  586 0.00000000E+00
  587 0.00000000E+00
  588 0.00000000E+00
  589 0.00000000E+00
  590 0.00000000E+00
  595 0.00000000E+00
  596 0.00000000E+00
  599 0.00000000E+00
  600 0.00000000E+00
  601 0.00000000E+00
  602 0.00000000E+00
  603 0.00000000E+00
  604 0.00000000E+00
  605 0.00000000E+00
  606 0.00000000E+00
  607 0.00000000E+00
  608 0.00000000E+00
  610 0.00000000E+00
  611 0.00000000E+00
  612 0.00000000E+00
  613 0.00000000E+00
  614 0.00000000E+00
  615 0.00000000E+00
  616 0.00000000E+00
  617 0.00000000E+00
  618 0.00000000E+00
  619 0.00000000E+00
  620 0.00000000E+00
  621 0.00000000E+00
  622 0.00000000E+00
  623 0.00000000E+00
  624 0.00000000E+00
  625 0.00000000E+00
  626 0.00000000E+00
  627 0.00000000E+00
  628 0.00000000E+00
  629 0.00000000E+00
  630 0.00000000E+00
  631 0.00000000E+00
  632 0.00000000E+00
  633 0.00000000E+00
  634 0.00000000E+00
  635 0.00000000E+00
  636 0.00000000E+00
  637 0.00000000E+00
  638 0.00000000E+00
  639 0.00000000E+00
  640 0.00000000E+00
  641 0.00000000E+00
  642 0.00000000E+00
  643 0.00000000E+00
  644 0.00000000E+00
  645 0.00000000E+00
  646 0.00000000E+00
  647 0.00000000E+00
  648 0.00000000E+00
  650 0.00000000E+00
  651 0.00000000E+00
  652 0.00000000E+00
  653 0.00000000E+00
  654 0.00000000E+00
  655 0.00000000E+00
  656 0.00000000E+00
  657 0.00000000E+00
  658 0.00000000E+00
  659 0.00000000E+00
  662 0.00000000E+00
  663 0.00000000E+00
  666 0.00000000E+00
  667 0.00000000E+00
  668 0.00000000E+00
  669 0.00000000E+00
  670 0.00000000E+00
  671 0.00000000E+00
  672 0.00000000E+00
  673 0.00000000E+00
  674 0.00000000E+00
  675 0.00000000E+00
  682 0.00000000E+00
  683 0.00000000E+00
  686 0.00000000E+00
  757 0.00000000E+00
  758 0.00000000E+00
  760 0.00000000E+00
  763 0.00000000E+00
  766 0.00000000E+00
  767 0.00000000E+00
  768 0.00000000E+00
  769 0.00000000E+00
  770 0.00000000E+00
  771 0.00000000E+00
  772 0.00000000E+00
  773 0.00000000E+00
  774 0.00000000E+00
  775 0.00000000E+00
  776 0.00000000E+00
  777 0.00000000E+00
  778 0.00000000E+00
  779 0.00000000E+00
  780 0.00000000E+00
  781 0.00000000E+00
  782 0.00000000E+00
  783 0.00000000E+00
  784 0.00000000E+00
  785 0.00000000E+00
  786 0.00000000E+00
  787 0.00000000E+00
  788 0.00000000E+00
  789 0.00000000E+00
  790 0.00000000E+00
  791 0.00000000E+00
  792 0.00000000E+00
  793 0.00000000E+00
  794 0.00000000E+00
  795 0.00000000E+00
  796 0.00000000E+00
  797 0.00000000E+00
  798 0.00000000E+00
  799 0.00000000E+00
  800 0.00000000E+00
  801 0.00000000E+00
  802 0.00000000E+00
  803 0.00000000E+00
  804 0.00000000E+00
  805 0.00000000E+00
  806 0.00000000E+00
  807 0.00000000E+00
  808 0.00000000E+00
  809 0.00000000E+00
  810 0.00000000E+00
  811 0.00000000E+00
  812 0.00000000E+00
  813 0.00000000E+00
  814 0.00000000E+00
  815 0.00000000E+00
  816 0.00000000E+00
  817 0.00000000E+00
  818 0.00000000E+00
  819 0.00000000E+00
  820 0.00000000E+00
  821 0.00000000E+00
  822 0.00000000E+00
  823 0.00000000E+00
  824 0.00000000E+00
  825 0.00000000E+00
  826 0.00000000E+00
  827 0.00000000E+00
  828 0.00000000E+00
  829 0.00000000E+00
  830 0.00000000E+00
  831 0.00000000E+00
  835 0.00000000E+00
  836 0.00000000E+00
  837 0.00000000E+00
  838 0.00000000E+00
  839 0.00000000E+00
  841 0.00000000E+00
  885 0.00000000E+00
  886 0.00000000E+00
  889 0.00000000E+00
  890 0.00000000E+00
  891 0.00000000E+00
  892 0.00000000E+00
  898 0.00000000E+00
  899 0.00000000E+00
  900 0.00000000E+00
  901 0.00000000E+00
  902 0.00000000E+00
  903 0.00000000E+00
  904 0.00000000E+00
  905 0.00000000E+00
  906 0.00000000E+00
  907 0.00000000E+00
  909 0.00000000E+00
  910 0.00000000E+00
  911 0.00000000E+00
  912 0.00000000E+00
  913 0.00000000E+00
  914 0.00000000E+00
  915 0.00000000E+00
  916 0.00000000E+00
  917 0.00000000E+00
  918 0.00000000E+00
  919 0.00000000E+00
  920 0.00000000E+00
  921 0.00000000E+00
  922 0.00000000E+00
  923 0.00000000E+00
  924 0.00000000E+00
  925 0.00000000E+00
  926 0.00000000E+00
  927 0.00000000E+00
  928 0.00000000E+00
  929 0.00000000E+00
  930 0.00000000E+00
  931 0.00000000E+00
  932 0.00000000E+00
  933 0.00000000E+00
  934 0.00000000E+00
  935 0.00000000E+00
  936 0.00000000E+00
  937 0.00000000E+00
  938 0.00000000E+00
  939 0.00000000E+00
  940 0.00000000E+00
  941 0.00000000E+00
  942 0.00000000E+00
  943 0.00000000E+00
  944 0.00000000E+00
  945 0.00000000E+00
  946 0.00000000E+00
  947 0.00000000E+00
  948 0.00000000E+00
  949 0.00000000E+00
  950 0.00000000E+00
  951 0.00000000E+00
  952 0.00000000E+00
  953 0.00000000E+00
  954 0.00000000E+00
  955 0.00000000E+00
  956 0.00000000E+00
  957 0.00000000E+00
  958 0.00000000E+00
  959 0.00000000E+00
  960 0.00000000E+00
  961 0.00000000E+00
  962 0.00000000E+00
  963 0.00000000E+00
  964 0.00000000E+00
  965 0.00000000E+00
  966 0.00000000E+00
  967 0.00000000E+00
  968 0.00000000E+00
  969 0.00000000E+00
  970 0.00000000E+00
  971 0.00000000E+00
  972 0.00000000E+00
  973 0.00000000E+00
  974 0.00000000E+00
  975 0.00000000E+00
  976 0.00000000E+00
  977 0.00000000E+00
  978 0.00000000E+00
  979 0.00000000E+00
  980 0.00000000E+00
  981 0.00000000E+00
  982 0.00000000E+00
  983 0.00000000E+00
  984 0.00000000E+00
  985 0.00000000E+00
  986 0.00000000E+00
  987 0.00000000E+00
  988 0.00000000E+00
  989 0.00000000E+00
  990 0.00000000E+00
  991 0.00000000E+00
  992 0.00000000E+00
  993 0.00000000E+00
  994 0.00000000E+00
  995 0.00000000E+00
  996 0.00000000E+00
  997 0.00000000E+00
  998 0.00000000E+00
  999 0.00000000E+00
  1000 0.00000000E+00
  1001 0.00000000E+00
  1002 0.00000000E+00
  1003 0.00000000E+00
  1004 0.00000000E+00
  1005 0.00000000E+00
  1006 0.00000000E+00
  1007 0.00000000E+00
  1008 0.00000000E+00
  1009 0.00000000E+00
  1010 0.00000000E+00
  1011 0.00000000E+00
  1012 0.00000000E+00
  1013 0.00000000E+00
  1014 0.00000000E+00
  1015 0.00000000E+00
  1016 0.00000000E+00
  1017 0.00000000E+00
  1018 0.00000000E+00
  1022 0.00000000E+00
  1023 0.00000000E+00
  1024 0.00000000E+00
  1065 0.00000000E+00
  1066 0.00000000E+00
  1071 0.00000000E+00
  1072 0.00000000E+00
  1075 0.00000000E+00
  1076 0.00000000E+00
  1078 0.00000000E+00
  1081 0.00000000E+00
  1082 0.00000000E+00
  1083 0.00000000E+00
  1085 0.00000000E+00
  1086 0.00000000E+00
  1091 0.00000000E+00
  1092 0.00000000E+00
  1093 0.00000000E+00
  1094 0.00000000E+00
  1095 0.00000000E+00
  1096 0.00000000E+00
  1097 0.00000000E+00
  1098 0.00000000E+00
  1100 0.00000000E+00
  1103 0.00000000E+00
  1104 0.00000000E+00
  1106 0.00000000E+00
  1107 0.00000000E+00
  1108 0.00000000E+00
  1109 0.00000000E+00
  1110 0.00000000E+00
  1111 0.00000000E+00
  1112 0.00000000E+00
  1113 0.00000000E+00
  1114 0.00000000E+00
  1115 0.00000000E+00
  1116 0.00000000E+00
  1117 0.00000000E+00
  1118 0.00000000E+00
  1119 0.00000000E+00
  1120 0.00000000E+00
  1121 0.00000000E+00
  1122 0.00000000E+00
  1123 0.00000000E+00
  1124 0.00000000E+00
  1125 0.00000000E+00
  1126 0.00000000E+00
  1127 0.00000000E+00
  1128 0.00000000E+00
  1129 0.00000000E+00
  1130 0.00000000E+00
  1131 0.00000000E+00
  1132 0.00000000E+00
  1133 0.00000000E+00
  1134 0.00000000E+00
  1135 0.00000000E+00
  1136 0.00000000E+00
  1137 0.00000000E+00
  1138 0.00000000E+00
  1139 0.00000000E+00
  1140 0.00000000E+00
  1141 0.00000000E+00
  1142 0.00000000E+00
  1143 0.00000000E+00
  1144 0.00000000E+00
  1145 0.00000000E+00
  1146 0.00000000E+00
  1147 0.00000000E+00
  1148 0.00000000E+00
  1149 0.00000000E+00
  1155 0.00000000E+00
  1156 0.00000000E+00
  1157 0.00000000E+00
  1158 0.00000000E+00
  1159 0.00000000E+00
  1160 0.00000000E+00
  1161 0.00000000E+00
  1162 0.00000000E+00
  1163 0.00000000E+00
  1164 0.00000000E+00
  1167 0.00000000E+00
  1168 0.00000000E+00
  1171 0.00000000E+00
  1172 0.00000000E+00
  1173 0.00000000E+00
  1174 0.00000000E+00
  1175 0.00000000E+00
  1176 0.00000000E+00
  1177 0.00000000E+00
  1178 0.00000000E+00
  1179 0.00000000E+00
  1180 0.00000000E+00
  1181 0.00000000E+00
  1182 0.00000000E+00
  1183 0.00000000E+00
  1184 0.00000000E+00
  1185 0.00000000E+00
  1186 0.00000000E+00
  1187 0.00000000E+00
  1188 0.00000000E+00
  1189 0.00000000E+00
  1191 0.00000000E+00
  1192 0.00000000E+00
  1193 0.00000000E+00
  1194 0.00000000E+00
  1195 0.00000000E+00
  1196 0.00000000E+00
  1197 0.00000000E+00
  1198 0.00000000E+00
  1207 0.00000000E+00
  1248 0.00000000E+00
  1253 0.00000000E+00
  1271 0.00000000E+00
  1272 0.00000000E+00
  1273 0.00000000E+00
  1274 0.00000000E+00
  1275 0.00000000E+00
  1276 0.00000000E+00
  1277 0.00000000E+00
  1278 0.00000000E+00
  1279 0.00000000E+00
  1280 0.00000000E+00
  1281 0.00000000E+00
  1282 0.00000000E+00
  1283 0.00000000E+00
  1284 0.00000000E+00
  1285 0.00000000E+00
  1286 0.00000000E+00
  1287 0.00000000E+00
  1288 0.00000000E+00
  1289 0.00000000E+00
  1290 0.00000000E+00
  1291 0.00000000E+00
  1292 0.00000000E+00
  1293 0.00000000E+00
  1294 0.00000000E+00
  1295 0.00000000E+00
  1296 0.00000000E+00
  1297 0.00000000E+00
  1298 0.00000000E+00
  1299 0.00000000E+00
  1300 0.00000000E+00
  1301 0.00000000E+00
  1302 0.00000000E+00
  1303 0.00000000E+00
  1304 0.00000000E+00
  1305 0.00000000E+00
  1306 0.00000000E+00
  1308 0.00000000E+00
  1309 0.00000000E+00
  1310 0.00000000E+00
  1316 0.00000000E+00
  1359 0.00000000E+00
  1360 0.00000000E+00
  1361 0.00000000E+00
  1362 0.00000000E+00
  1363 0.00000000E+00
  1364 0.00000000E+00
  1365 0.00000000E+00
  1366 0.00000000E+00
  1367 0.00000000E+00
  1368 0.00000000E+00
  1369 0.00000000E+00
  1370 0.00000000E+00
  1371 0.00000000E+00
  1372 0.00000000E+00
  1373 0.00000000E+00
  1374 0.00000000E+00
  1375 0.00000000E+00
  1376 0.00000000E+00
  1377 0.00000000E+00
  1378 0.00000000E+00
  1379 0.00000000E+00
  1380 0.00000000E+00
  1381 0.00000000E+00
  1382 0.00000000E+00
  1383 0.00000000E+00
  1384 0.00000000E+00
  1385 0.00000000E+00
  1388 0.00000000E+00
  1389 0.00000000E+00
  1390 0.00000000E+00
  1391 0.00000000E+00
  1392 0.00000000E+00
  1393 0.00000000E+00
  1394 0.00000000E+00
  1395 0.00000000E+00
  1396 0.00000000E+00
  1397 0.00000000E+00
  1400 0.00000000E+00
  1404 0.00000000E+00
  1405 0.00000000E+00
  1406 0.00000000E+00
  1407 0.00000000E+00
  1408 0.00000000E+00
  1409 0.00000000E+00
  1417 0.00000000E+00
  1418 0.00000000E+00
  1466 0.00000000E+00
  1467 0.00000000E+00
  1468 0.00000000E+00
  1469 0.00000000E+00
  1470 0.00000000E+00
  1471 0.00000000E+00
  1472 0.00000000E+00
  1473 0.00000000E+00
  1474 0.00000000E+00
  1475 0.00000000E+00
  1476 0.00000000E+00
  1477 0.00000000E+00
  1478 0.00000000E+00
  1479 0.00000000E+00
  1480 0.00000000E+00
  1481 0.00000000E+00
  1482 0.00000000E+00
  1483 0.00000000E+00
  1484 0.00000000E+00
  1485 0.00000000E+00
  1486 0.00000000E+00
  1487 0.00000000E+00
  1488 0.00000000E+00
  1489 0.00000000E+00
  1490 0.00000000E+00
  1491 0.00000000E+00
  1492 0.00000000E+00
  1493 0.00000000E+00
  1494 0.00000000E+00
  1495 0.00000000E+00
  1496 0.00000000E+00
  1497 0.00000000E+00
  1498 0.00000000E+00
  1499 0.00000000E+00
  1500 0.00000000E+00
  1501 0.00000000E+00
  1502 0.00000000E+00
  1503 0.00000000E+00
  1504 0.00000000E+00
  1505 0.00000000E+00
  1506 0.00000000E+00
  1507 0.00000000E+00
  1508 0.00000000E+00
  1509 0.00000000E+00
  1510 0.00000000E+00
  1511 0.00000000E+00
  1512 0.00000000E+00
  1513 0.00000000E+00
  1514 0.00000000E+00
  1515 0.00000000E+00
  1516 0.00000000E+00
  1517 0.00000000E+00
  1518 0.00000000E+00
  1519 0.00000000E+00
  1520 0.00000000E+00
  1521 0.00000000E+00
  1528 0.00000000E+00
  1529 0.00000000E+00
  1530 0.00000000E+00
  1531 0.00000000E+00
  1532 0.00000000E+00
  1533 0.00000000E+00
  1534 0.00000000E+00
  1535 0.00000000E+00
  1544 0.00000000E+00
  1545 0.00000000E+00
  1546 0.00000000E+00
  1547 0.00000000E+00
  1548 0.00000000E+00
  1549 0.00000000E+00
  1550 0.00000000E+00
  1606 0.00000000E+00
  1607 0.00000000E+00
  1608 0.00000000E+00
  1609 0.00000000E+00
  1610 0.00000000E+00
  1611 0.00000000E+00
  1612 0.00000000E+00
  1613 0.00000000E+00
  1614 0.00000000E+00
  1615 0.00000000E+00
  1616 0.00000000E+00
  1617 0.00000000E+00
  1618 0.00000000E+00
  1619 0.00000000E+00
  1620 0.00000000E+00
  1621 0.00000000E+00
  1622 0.00000000E+00
  1623 0.00000000E+00
  1624 0.00000000E+00
  1625 0.00000000E+00
  1626 0.00000000E+00
  1627 0.00000000E+00
  1628 0.00000000E+00
  1629 0.00000000E+00
  1630 0.00000000E+00
  1631 0.00000000E+00
  1632 0.00000000E+00
  1633 0.00000000E+00
  1634 0.00000000E+00
  1635 0.00000000E+00
  1636 0.00000000E+00
  1637 0.00000000E+00
  1638 0.00000000E+00
  1639 0.00000000E+00
  1640 0.00000000E+00
  1641 0.00000000E+00
  1642 0.00000000E+00
  1643 0.00000000E+00
  1644 0.00000000E+00
  1645 0.00000000E+00
  1646 0.00000000E+00
  1647 0.00000000E+00
  1648 0.00000000E+00
  1649 0.00000000E+00
  1650 0.00000000E+00
  1651 0.00000000E+00
  1652 0.00000000E+00
  1653 0.00000000E+00
  1654 0.00000000E+00
  1655 0.00000000E+00
  1656 0.00000000E+00
  1657 0.00000000E+00
  1658 0.00000000E+00
  1659 0.00000000E+00
  1660 0.00000000E+00
  1661 0.00000000E+00
  1662 0.00000000E+00
  1663 0.00000000E+00
  1664 0.00000000E+00
  1665 0.00000000E+00
  1666 0.00000000E+00
  1667 0.00000000E+00
  1668 0.00000000E+00
  1669 0.00000000E+00
  1670 0.00000000E+00
  1671 0.00000000E+00
  1672 0.00000000E+00
  1673 0.00000000E+00
  1674 0.00000000E+00
  1675 0.00000000E+00
  1676 0.00000000E+00
  1677 0.00000000E+00
  1678 0.00000000E+00
  1679 0.00000000E+00
  1680 0.00000000E+00
  1681 0.00000000E+00
  1682 0.00000000E+00
  1683 0.00000000E+00
  1684 0.00000000E+00
  1685 0.00000000E+00
  1686 0.00000000E+00
  1687 0.00000000E+00
  1688 0.00000000E+00
  1689 0.00000000E+00
  1690 0.00000000E+00
  1691 0.00000000E+00
  1692 0.00000000E+00
  1693 0.00000000E+00
  1694 0.00000000E+00
  1695 0.00000000E+00
  1696 0.00000000E+00
  1697 0.00000000E+00
  1698 0.00000000E+00
  1699 0.00000000E+00
  1700 0.00000000E+00
  1701 0.00000000E+00
  1702 0.00000000E+00
  1703 0.00000000E+00
  1705 0.00000000E+00
  1706 0.00000000E+00
  1709 0.00000000E+00
  1710 0.00000000E+00
  1711 0.00000000E+00
  1712 0.00000000E+00
  1713 0.00000000E+00
  1714 0.00000000E+00
  1715 0.00000000E+00
  1716 0.00000000E+00
  1717 0.00000000E+00
  1718 0.00000000E+00
  1721 0.00000000E+00
  1725 0.00000000E+00
  1726 0.00000000E+00
  1727 0.00000000E+00
  1728 0.00000000E+00
  1729 0.00000000E+00
  1730 0.00000000E+00
  1731 0.00000000E+00
  1738 0.00000000E+00
  1739 0.00000000E+00
  1742 0.00000000E+00
  1797 0.00000000E+00
  1798 0.00000000E+00
  1799 0.00000000E+00
  1800 0.00000000E+00
  1801 0.00000000E+00
  1802 0.00000000E+00
  1803 0.00000000E+00
  1804 0.00000000E+00
  1805 0.00000000E+00
  1806 0.00000000E+00
  1807 0.00000000E+00
  1808 0.00000000E+00
  1809 0.00000000E+00
  1810 0.00000000E+00
  1811 0.00000000E+00
  1812 0.00000000E+00
  1813 0.00000000E+00
  1814 0.00000000E+00
  1815 0.00000000E+00
  1816 0.00000000E+00
  1817 0.00000000E+00
  1818 0.00000000E+00
  1819 0.00000000E+00
  1820 0.00000000E+00
  1821 0.00000000E+00
  1822 0.00000000E+00
  1823 0.00000000E+00
  1824 0.00000000E+00
  1825 0.00000000E+00
  1826 0.00000000E+00
  1827 0.00000000E+00
  1828 0.00000000E+00
  1829 0.00000000E+00
  1830 0.00000000E+00
  1831 0.00000000E+00
  1832 0.00000000E+00
  1833 0.00000000E+00
  1834 0.00000000E+00
  1835 0.00000000E+00
  1836 0.00000000E+00
  1837 0.00000000E+00
  1838 0.00000000E+00
  1839 0.00000000E+00
  1840 0.00000000E+00
  1841 0.00000000E+00
  1842 0.00000000E+00
  1843 0.00000000E+00
  1844 0.00000000E+00
  1845 0.00000000E+00
  1846 0.00000000E+00
  1847 0.00000000E+00
  1848 0.00000000E+00
  1849 0.00000000E+00
  1850 0.00000000E+00
  1851 0.00000000E+00
  1852 0.00000000E+00
  1853 0.00000000E+00
  1854 0.00000000E+00
  1855 0.00000000E+00
  1856 0.00000000E+00
  1857 0.00000000E+00
  1858 0.00000000E+00
  1859 0.00000000E+00
  1860 0.00000000E+00
  1861 0.00000000E+00
  1862 0.00000000E+00
  1863 0.00000000E+00
  1864 0.00000000E+00
  1865 0.00000000E+00
  1866 0.00000000E+00
  1867 0.00000000E+00
  1868 0.00000000E+00
  1869 0.00000000E+00
  1870 0.00000000E+00
  1871 0.00000000E+00
  1872 0.00000000E+00
  1873 0.00000000E+00
  1874 0.00000000E+00
  1875 0.00000000E+00
  1876 0.00000000E+00
  1877 0.00000000E+00
  1878 0.00000000E+00
  1879 0.00000000E+00
  1880 0.00000000E+00
  1881 0.00000000E+00
  1882 0.00000000E+00
  1883 0.00000000E+00
  1884 0.00000000E+00
  1885 0.00000000E+00
  1886 0.00000000E+00
  1887 0.00000000E+00
  1888 0.00000000E+00
  1889 0.00000000E+00
  1890 0.00000000E+00
  1891 0.00000000E+00
  1892 0.00000000E+00
  1893 0.00000000E+00
  1894 0.00000000E+00
  1895 0.00000000E+00
  1897 0.00000000E+00
  1898 0.00000000E+00
  1899 0.00000000E+00
  1905 0.00000000E+00
  1906 0.00000000E+00
  1909 0.00000000E+00
  1910 0.00000000E+00
  1915 0.00000000E+00
  1916 0.00000000E+00
  1925 0.00000000E+00
  1926 0.00000000E+00
  1927 0.00000000E+00
  1928 0.00000000E+00
  1929 0.00000000E+00
  1930 0.00000000E+00
  1931 0.00000000E+00
  1932 0.00000000E+00
  1941 0.00000000E+00
  1942 0.00000000E+00
  1943 0.00000000E+00
  1944 0.00000000E+00
  1945 0.00000000E+00
  1946 0.00000000E+00
  1947 0.00000000E+00
  1957 0.00000000E+00
  1958 0.00000000E+00
  1959 0.00000000E+00
  1960 0.00000000E+00
  1961 0.00000000E+00
  1962 0.00000000E+00
  1967 0.00000000E+00
  1968 0.00000000E+00
  1971 0.00000000E+00
  1972 0.00000000E+00
  2036 0.00000000E+00
  2037 0.00000000E+00
  2038 0.00000000E+00
  2039 0.00000000E+00
  2040 0.00000000E+00
  2041 0.00000000E+00
  2042 0.00000000E+00
  2043 0.00000000E+00
  2044 0.00000000E+00
  2045 0.00000000E+00
  2046 0.00000000E+00
  2047 0.00000000E+00
  2048 0.00000000E+00
  2049 0.00000000E+00
  2050 0.00000000E+00
  2051 0.00000000E+00
  2052 0.00000000E+00
  2053 0.00000000E+00
  2054 0.00000000E+00
  2055 0.00000000E+00
  2056 0.00000000E+00
  2057 0.00000000E+00
  2058 0.00000000E+00
  2059 0.00000000E+00
  2060 0.00000000E+00
  2061 0.00000000E+00
  2062 0.00000000E+00
  2063 0.00000000E+00
  2064 0.00000000E+00
  2065 0.00000000E+00
  2066 0.00000000E+00
  2067 0.00000000E+00
  2068 0.00000000E+00
  2069 0.00000000E+00
  2070 0.00000000E+00
  2071 0.00000000E+00
  2072 0.00000000E+00
  2073 0.00000000E+00
  2074 0.00000000E+00
  2075 0.00000000E+00
  2076 0.00000000E+00
  2077 0.00000000E+00
  2078 0.00000000E+00
  2079 0.00000000E+00
  2080 0.00000000E+00
  2081 0.00000000E+00
  2082 0.00000000E+00
  2083 0.00000000E+00
  2084 0.00000000E+00
  2085 0.00000000E+00
  2086 0.00000000E+00
  2087 0.00000000E+00
  2088 0.00000000E+00
  2089 0.00000000E+00
  2090 0.00000000E+00
  2091 0.00000000E+00
  2092 0.00000000E+00
  2093 0.00000000E+00
  2094 0.00000000E+00
  2095 0.00000000E+00
  2096 0.00000000E+00
  2097 0.00000000E+00
  2098 0.00000000E+00
  2099 0.00000000E+00
  2100 0.00000000E+00
  2101 0.00000000E+00
  2102 0.00000000E+00
  2103 0.00000000E+00
  2104 0.00000000E+00
  2105 0.00000000E+00
  2106 0.00000000E+00
  2107 0.00000000E+00
  2108 0.00000000E+00
  2109 0.00000000E+00
  2110 0.00000000E+00
  2111 0.00000000E+00
  2112 0.00000000E+00
  2113 0.00000000E+00
  2114 0.00000000E+00
  2115 0.00000000E+00
  2116 0.00000000E+00
  2117 0.00000000E+00
  2118 0.00000000E+00
  2119 0.00000000E+00
  2120 0.00000000E+00
  2121 0.00000000E+00
  2122 0.00000000E+00
  2123 0.00000000E+00
  2124 0.00000000E+00
  2125 0.00000000E+00
  2126 0.00000000E+00
  2127 0.00000000E+00
  2128 0.00000000E+00
  2129 0.00000000E+00
  2130 0.00000000E+00
  2131 0.00000000E+00
  2132 0.00000000E+00
  2133 0.00000000E+00
  2134 0.00000000E+00
  2135 0.00000000E+00
  2136 0.00000000E+00
  2139 0.00000000E+00
  2140 0.00000000E+00
  2141 0.00000000E+00
  2142 0.00000000E+00
  2143 0.00000000E+00
  2144 0.00000000E+00
  2145 0.00000000E+00
  2146 0.00000000E+00
  2147 0.00000000E+00
  2148 0.00000000E+00
  2151 0.00000000E+00
  2152 0.00000000E+00
  2155 0.00000000E+00