# File generated by Flopy version 3.9.1 on 02/12/2026 at 10:44:07.
BEGIN options
  FIXED_CELL
  PRINT_FLOWS
  SAVE_FLOWS
END options

BEGIN dimensions
  MAXBOUND  14517
END dimensions

BEGIN period  1
  1 1.02751879E-08
  2 1.02337784E-08
  3 1.02598381E-08
  4 1.02976140E-08
  5 1.01846511E-08
  6 1.01830906E-08
  7 1.01388966E-08
  8 1.01031016E-08
  9 1.00561157E-08
  10 1.02243853E-08
  11 1.02473063E-08
  12 1.03016355E-08
  13 1.03853504E-08
  14 1.01289123E-08
  15 1.01534678E-08
  16 1.00455383E-08
  17 1.00717347E-08
  18 1.02115419E-08
  19 1.03008657E-08
  20 1.01335610E-08
  21 1.02284849E-08
  22 1.04954928E-08
  23 1.06284146E-08
  24 1.04181344E-08
  25 1.05592945E-08
  26 1.03528335E-08
  27 1.05021268E-08
  28 1.07198610E-08
  29 1.08952244E-08
  30 1.06714412E-08
  31 1.08557569E-08
  32 1.11545470E-08
  33 1.11205940E-08
  34 1.13333723E-08
  35 1.15482630E-08
  36 1.17618067E-08
  37 1.19711976E-08
  38 1.21742477E-08
  39 1.23693223E-08
  40 1.25552629E-08
  41 1.27313058E-08
  42 1.28970043E-08
  43 1.30521588E-08
  44 1.31730308E-08
  45 1.33069429E-08
  46 1.34306894E-08
  47 1.35445457E-08
  48 1.36488262E-08
  49 1.11767855E-08
  50 1.14365446E-08
  51 1.12103120E-08
  52 1.07368145E-08
  53 1.05622351E-08
  54 1.03913114E-08
  55 1.05403517E-08
  56 1.03616874E-08
  57 1.09556686E-08
  58 1.07405483E-08
  59 1.09844158E-08
  60 1.07638947E-08
  61 1.05370827E-08
  62 1.03514796E-08
  63 1.05546350E-08
  64 1.03631620E-08
  65 1.02435580E-08
  66 1.01242591E-08
  67 1.02068250E-08
  68 1.00815075E-08
  69 1.00380019E-08
  70 9.98826914E-09
  71 9.99075065E-09
  72 9.93837996E-09
  73 1.01901633E-08
  74 1.00593262E-08
  75 1.01962887E-08
  76 1.00606334E-08
  77 9.96441046E-09
  78 9.90958597E-09
  79 9.96204823E-09
  80 9.90503932E-09
  81 9.97710538E-09
  82 1.00049137E-08
  83 9.92664720E-09
  84 9.95599564E-09
  85 1.00704213E-08
  86 1.01708194E-08
  87 1.00250197E-08
  88 1.01306267E-08
  89 9.89731474E-09
  90 9.92808189E-09
  91 9.89227568E-09
  92 9.92428515E-09
  93 1.00003490E-08
  94 1.01107386E-08
  95 9.99940057E-09
  96 1.01139677E-08
  97 1.03020514E-08
  98 1.04591957E-08
  99 1.02683675E-08
  100 1.04328736E-08
  101 1.06368809E-08
  102 1.08852092E-08
  103 1.06183268E-08
  104 1.08726118E-08
  105 1.02544104E-08
  106 1.04255558E-08
  107 1.02627692E-08
  108 1.04395769E-08
  109 1.06588260E-08
  110 1.08781729E-08
  111 1.06787467E-08
  112 1.09037129E-08
  113 1.11002747E-08
  114 1.13210300E-08
  115 1.10953150E-08
  116 1.13231079E-08
  117 1.15431800E-08
  118 1.17631540E-08
  119 1.15515308E-08
  120 1.17769269E-08
  121 1.11073829E-08
  122 1.13410239E-08
  123 1.11380251E-08
  124 1.13760691E-08
  125 1.15745027E-08
  126 1.18041055E-08
  127 1.16131554E-08
  128 1.18455458E-08
  129 1.19781009E-08
  130 1.21858377E-08
  131 1.19964229E-08
  132 1.22078611E-08
  133 1.23847709E-08
  134 1.25738059E-08
  135 1.24097048E-08
  136 1.26009352E-08
  137 1.20269620E-08
  138 1.22409594E-08
  139 1.20703983E-08
  140 1.22856642E-08
  141 1.24446328E-08
  142 1.26370486E-08
  143 1.24899629E-08
  144 1.26824529E-08
  145 1.27522552E-08
  146 1.29197526E-08
  147 1.27809486E-08
  148 1.29494642E-08
  149 1.30761779E-08
  150 1.31983049E-08
  151 1.30838868E-08
  152 1.32291375E-08
  153 1.28176926E-08
  154 1.29863710E-08
  155 1.28627123E-08
  156 1.30306331E-08
  157 1.31209466E-08
  158 1.32656524E-08
  159 1.31644985E-08
  160 1.33079196E-08
  161 1.33326375E-08
  162 1.34564777E-08
  163 1.33632989E-08
  164 1.34866983E-08
  165 1.35701519E-08
  166 1.36740178E-08
  167 1.35997101E-08
  168 1.37027312E-08
  169 1.33990131E-08
  170 1.35214080E-08
  171 1.34398195E-08
  172 1.35606234E-08
  173 1.36332546E-08
  174 1.37349837E-08
  175 1.36707851E-08
  176 1.37707633E-08
  177 1.37684455E-08
  178 1.38538038E-08
  179 1.37961632E-08
  180 1.38803995E-08
  181 1.39558176E-08
  182 1.40227739E-08
  183 1.38270233E-08
  184 1.39097867E-08
  185 1.38610063E-08
  186 1.39419413E-08
  187 1.39836649E-08
  188 1.40490230E-08
  189 1.40139678E-08
  190 1.40774547E-08
  191 1.41061985E-08
  192 1.41555021E-08
  193 1.41327394E-08
  194 1.41801292E-08
  195 1.42199040E-08
  196 1.42523209E-08
  197 1.40296763E-08
  198 1.40222501E-08
  199 1.39409218E-08
  200 1.40112111E-08
  201 1.39605335E-08
  202 1.39182718E-08
  203 1.38903453E-08
  204 1.39408971E-08
  205 1.39160967E-08
  206 1.38565912E-08
  207 1.38855801E-08
  208 1.38487852E-08
  209 1.38051405E-08
  210 1.37540641E-08
  211 1.28949790E-08
  212 1.25654821E-08
  213 1.23809172E-08
  214 1.17146572E-08
  215 1.20012982E-08
  216 1.17857914E-08
  217 1.14905966E-08
  218 1.12619807E-08
  219 1.15619147E-08
  220 1.13327671E-08
  221 1.20855957E-08
  222 1.18727394E-08
  223 1.21838648E-08
  224 1.19755600E-08
  225 1.16509859E-08
  226 1.14233444E-08
  227 1.17579841E-08
  228 1.15340298E-08
  229 1.10329399E-08
  230 1.08086066E-08
  231 1.11024605E-08
  232 1.08761700E-08
  233 1.05950461E-08
  234 1.03990497E-08
  235 1.06600795E-08
  236 1.04611825E-08
  237 1.11938661E-08
  238 1.09677128E-08
  239 1.13076459E-08
  240 1.10839221E-08
  241 1.07511191E-08
  242 1.05512028E-08
  243 1.08690687E-08
  244 1.06702390E-08
  245 1.02277720E-08
  246 1.00882154E-08
  247 1.02869099E-08
  248 1.01445897E-08
  249 9.98661110E-09
  250 9.92778012E-09
  251 1.00407824E-08
  252 9.98058881E-09
  253 1.03755905E-08
  254 1.02318570E-08
  255 1.04951589E-08
  256 1.03515543E-08
  257 1.01459994E-08
  258 9.91458805E-09
  259 9.94760492E-09
  260 9.96705196E-09
  261 1.00007821E-08
  262 1.01035184E-08
  263 1.01184632E-08
  264 1.02775522E-08
  265 1.04107635E-08
  266 1.07218843E-08
  267 1.09508589E-08
  268 1.07898619E-08
  269 1.10209583E-08
  270 1.06243032E-08
  271 1.10547706E-08
  272 1.11885961E-08
  273 1.14293483E-08
  274 1.12601860E-08
  275 1.15017205E-08
  276 1.16683724E-08
  277 1.19019395E-08
  278 1.17408113E-08
  279 1.19737742E-08
  280 1.15280151E-08
  281 1.19977806E-08
  282 1.21272616E-08
  283 1.23423712E-08
  284 1.21978996E-08
  285 1.24113156E-08
  286 1.25459817E-08
  287 1.27373479E-08
  288 1.26128361E-08
  289 1.28018123E-08
  290 1.22824518E-08
  291 1.24925524E-08
  292 1.23808278E-08
  293 1.25859405E-08
  294 1.26905178E-08
  295 1.28757922E-08
  296 1.27788526E-08
  297 1.29590941E-08
  298 1.29161391E-08
  299 1.30611925E-08
  300 1.29780004E-08
  301 1.31205839E-08
  302 1.32145822E-08
  303 1.33559489E-08
  304 1.32711623E-08
  305 1.34096861E-08
  306 1.30280137E-08
  307 1.31872615E-08
  308 1.31065647E-08
  309 1.32610238E-08
  310 1.33341231E-08
  311 1.34690102E-08
  312 1.34032674E-08
  313 1.35337320E-08
  314 1.34857063E-08
  315 1.36043177E-08
  316 1.35366077E-08
  317 1.36524184E-08
  318 1.37122650E-08
  319 1.38100276E-08
  320 1.37576196E-08
  321 1.38527022E-08
  322 1.35924020E-08
  323 1.37048069E-08
  324 1.36529108E-08
  325 1.37613172E-08
  326 1.38067353E-08
  327 1.38986810E-08
  328 1.38594599E-08
  329 1.39478256E-08
  330 1.38980670E-08
  331 1.39768179E-08
  332 1.39381338E-08
  333 1.40143495E-08
  334 1.40466828E-08
  335 1.41080289E-08
  336 1.40817484E-08
  337 1.41406910E-08
  338 1.39811088E-08
  339 1.40544474E-08
  340 1.40268679E-08
  341 1.40970017E-08
  342 1.41190860E-08
  343 1.41753726E-08
  344 1.41585994E-08
  345 1.42119913E-08
  346 1.41611891E-08
  347 1.42064629E-08
  348 1.41915005E-08
  349 1.42344647E-08
  350 1.42441205E-08
  351 1.42744071E-08
  352 1.42698400E-08
  353 1.42978564E-08
  354 1.42236160E-08
  355 1.42640877E-08
  356 1.42574666E-08
  357 1.42952766E-08
  358 1.42970268E-08
  359 1.43226446E-08
  360 1.43256390E-08
  361 1.43487436E-08
  362 1.42975487E-08
  363 1.43137590E-08
  364 1.43187235E-08
  365 1.43326381E-08
  366 1.43397923E-08
  367 1.43411315E-08
  368 1.43526645E-08
  369 1.43647584E-08
  370 1.43738382E-08
  371 1.43574158E-08
  372 1.43555626E-08
  373 1.43761328E-08
  374 1.43717978E-08
  375 1.43472981E-08
  376 1.43610054E-08
  377 1.43439572E-08
  378 1.43208973E-08
  379 1.39356018E-08
  380 1.39499602E-08
  381 1.39561761E-08
  382 1.40013884E-08
  383 1.40091825E-08
  384 1.39759965E-08
  385 1.39836964E-08
  386 1.39634003E-08
  387 1.39716908E-08
  388 1.39921114E-08
  389 1.40011262E-08
  390 1.39810208E-08
  391 1.39912778E-08
  392 1.40280447E-08
  393 1.40170869E-08
  394 1.40248455E-08
  395 1.40333451E-08
  396 1.40375649E-08
  397 1.40321400E-08
  398 1.40385958E-08
  399 1.40105491E-08
  400 1.40201160E-08
  401 1.40022666E-08
  402 1.40137130E-08
  403 1.40294957E-08
  404 1.40382983E-08
  405 1.40252715E-08
  406 1.40365338E-08
  407 1.40402965E-08
  408 1.40410915E-08
  409 1.40437896E-08
  410 1.40472568E-08
  411 1.40394679E-08
  412 1.40349163E-08
  413 1.40484995E-08
  414 1.40469939E-08
  415 1.40460825E-08
  416 1.40523657E-08
  417 1.40470390E-08
  418 1.40562839E-08
  419 1.40566326E-08
  420 1.40583440E-08
  421 1.40637338E-08
  422 1.40688325E-08
  423 1.40269059E-08
  424 1.39800981E-08
  425 1.40421973E-08
  426 1.39994716E-08
  427 1.39636929E-08
  428 1.39422548E-08
  429 1.39865109E-08
  430 1.39686655E-08
  431 1.40569447E-08
  432 1.40185097E-08
  433 1.40710116E-08
  434 1.40370711E-08
  435 1.40150466E-08
  436 1.39152328E-08
  437 1.38820700E-08
  438 1.39453879E-08
  439 1.39161296E-08
  440 1.38422033E-08
  441 1.37950626E-08
  442 1.38803404E-08
  443 1.38374670E-08
  444 1.39758795E-08
  445 1.39507863E-08
  446 1.40065411E-08
  447 1.39858600E-08
  448 1.39193596E-08
  449 1.38810682E-08
  450 1.39590638E-08
  451 1.39256483E-08
  452 1.37400692E-08
  453 1.36766349E-08
  454 1.37869516E-08
  455 1.37282296E-08
  456 1.36607286E-08
  457 1.35838689E-08
  458 1.38353806E-08
  459 1.37817634E-08
  460 1.38851144E-08
  461 1.38369661E-08
  462 1.37196783E-08
  463 1.36485820E-08
  464 1.37807073E-08
  465 1.37158403E-08
  466 1.33264317E-08
  467 1.34970668E-08
  468 1.33997411E-08
  469 1.32461196E-08
  470 1.31199918E-08
  471 1.33258676E-08
  472 1.32064214E-08
  473 1.35679281E-08
  474 1.34771721E-08
  475 1.36418663E-08
  476 1.35582893E-08
  477 1.34104976E-08
  478 1.32986023E-08
  479 1.34995114E-08
  480 1.33959704E-08
  481 1.29811834E-08
  482 1.28293474E-08
  483 1.30746776E-08
  484 1.29302809E-08
  485 1.26643390E-08
  486 1.24863096E-08
  487 1.27730600E-08
  488 1.26031182E-08
  489 1.31749222E-08
  490 1.30391107E-08
  491 1.32812792E-08
  492 1.31551170E-08
  493 1.28909876E-08
  494 1.27306238E-08
  495 1.30173122E-08
  496 1.28679200E-08
  497 1.22958266E-08
  498 1.20940184E-08
  499 1.24209485E-08
  500 1.22275767E-08
  501 1.18827398E-08
  502 1.16647439E-08
  503 1.20247251E-08
  504 1.18149868E-08
  505 1.25584511E-08
  506 1.23753989E-08
  507 1.27073248E-08
  508 1.25363688E-08
  509 1.21720758E-08
  510 1.14438364E-08
  511 1.12249754E-08
  512 1.16019872E-08
  513 1.13904937E-08
  514 1.09982536E-08
  515 1.17798680E-08
  516 1.14026525E-08
  517 1.06593783E-08
  518 1.04549736E-08
  519 1.10913711E-08
  520 1.09023653E-08
  521 1.06891640E-08
  522 1.13219295E-08
  523 1.21770780E-08
  524 1.26522075E-08
  525 1.30171840E-08
  526 1.29156501E-08
  527 1.32241391E-08
  528 1.31929123E-08
  529 1.33415707E-08
  530 1.32866209E-08
  531 1.34285056E-08
  532 1.34783160E-08
  533 1.36035947E-08
  534 1.35589104E-08
  535 1.36782761E-08
  536 1.35061256E-08
  537 1.37451035E-08
  538 1.37178999E-08
  539 1.38217376E-08
  540 1.37870814E-08
  541 1.38858122E-08
  542 1.39156034E-08
  543 1.39999668E-08
  544 1.39749394E-08
  545 1.40549058E-08
  546 1.39441789E-08
  547 1.40372082E-08
  548 1.41124161E-08
  549 1.41021192E-08
  550 1.41722465E-08
  551 1.40752619E-08
  552 1.41418817E-08
  553 1.41261170E-08
  554 1.41889371E-08
  555 1.42001760E-08
  556 1.42504514E-08
  557 1.42436870E-08
  558 1.42906443E-08
  559 1.41792371E-08
  560 1.42379994E-08
  561 1.42344057E-08
  562 1.42888831E-08
  563 1.42889889E-08
  564 1.43324497E-08
  565 1.43359244E-08
  566 1.43757357E-08
  567 1.42929730E-08
  568 1.43279677E-08
  569 1.43300457E-08
  570 1.43620899E-08
  571 1.43556287E-08
  572 1.43761208E-08
  573 1.43869420E-08
  574 1.44047395E-08
  575 1.43685856E-08
  576 1.43975639E-08
  577 1.44084844E-08
  578 1.44343032E-08
  579 1.44195189E-08
  580 1.44345581E-08
  581 1.44532935E-08
  582 1.44655305E-08
  583 1.43895874E-08
  584 1.43961582E-08
  585 1.44155984E-08
  586 1.44196217E-08
  587 1.43959588E-08
  588 1.43891207E-08
  589 1.44169084E-08
  590 1.44075645E-08
  591 1.44427683E-08
  592 1.44442237E-08
  593 1.44710700E-08
  594 1.44699562E-08
  595 1.44389953E-08
  596 1.44271619E-08
  597 1.44622307E-08
  598 1.44479440E-08
  599 1.43757936E-08
  600 1.43561580E-08
  601 1.43917151E-08
  602 1.43695180E-08
  603 1.43304396E-08
  604 1.42989234E-08
  605 1.43411784E-08
  606 1.43069648E-08
  607 1.44088226E-08
  608 1.43841109E-08
  609 1.44271680E-08
  610 1.44000108E-08
  611 1.43532104E-08
  612 1.43163707E-08
  613 1.43666325E-08
  614 1.43272630E-08
  615 1.42672239E-08
  616 1.42223960E-08
  617 1.42739247E-08
  618 1.42263043E-08
  619 1.42822194E-08
  620 1.42319234E-08
  621 1.41740549E-08
  622 1.41178461E-08
  623 1.41769171E-08
  624 1.41178745E-08
  625 1.40556091E-08
  626 1.39925143E-08
  627 1.39270666E-08
  628 1.34355695E-08
  629 1.34625083E-08
  630 1.34130480E-08
  631 1.33870156E-08
  632 1.34217778E-08
  633 1.34436010E-08
  634 1.38603430E-08
  635 1.34518844E-08
  636 1.38575613E-08
  637 1.38766803E-08
  638 1.38868306E-08
  639 1.39076547E-08
  640 1.38941869E-08
  641 1.38992875E-08
  642 1.38724628E-08
  643 1.38811056E-08
  644 1.38681567E-08
  645 1.38750936E-08
  646 1.38868302E-08
  647 1.38902241E-08
  648 1.38789779E-08
  649 1.38804491E-08
  650 1.39125716E-08
  651 1.39163124E-08
  652 1.39026853E-08
  653 1.39048885E-08
  654 1.39197498E-08
  655 1.39229653E-08
  656 1.39069341E-08
  657 1.39088979E-08
  658 1.38918937E-08
  659 1.38924519E-08
  660 1.38801706E-08
  661 1.38788163E-08
  662 1.38928067E-08
  663 1.38933258E-08
  664 1.38773181E-08
  665 1.38761883E-08
  666 1.39263920E-08
  667 1.39304138E-08
  668 1.39112653E-08
  669 1.39144692E-08
  670 1.39353527E-08
  671 1.39414573E-08
  672 1.39188757E-08
  673 1.39247706E-08
  674 1.38944561E-08
  675 1.38966845E-08
  676 1.38758933E-08
  677 1.38769789E-08
  678 1.39004252E-08
  679 1.39060053E-08
  680 1.38799128E-08
  681 1.38850669E-08
  682 1.39488937E-08
  683 1.39577388E-08
  684 1.39323496E-08
  685 1.39417100E-08
  686 1.39679765E-08
  687 1.39794971E-08
  688 1.39528471E-08
  689 1.39656529E-08
  690 1.39081884E-08
  691 1.39330994E-08
  692 1.39921001E-08
  693 1.40054996E-08
  694 1.39799202E-08
  695 1.39953493E-08
  696 1.40232771E-08
  697 1.39667458E-08
  698 1.40065535E-08
  699 1.40528168E-08
  700 1.40777177E-08
  701 1.40486004E-08
  702 1.40881452E-08
  703 1.40933322E-08
  704 1.40632027E-08
  705 1.41201696E-08
  706 1.41093103E-08
  707 1.40463685E-08
  708 1.40074740E-08
  709 1.41117654E-08
  710 1.40941224E-08
  711 1.39428591E-08
  712 1.38434954E-08
  713 1.37852790E-08
  714 1.39077119E-08
  715 1.38565176E-08
  716 1.40533312E-08
  717 1.39868158E-08
  718 1.37228422E-08
  719 1.35964266E-08
  720 1.38923400E-08
  721 1.38037115E-08
  722 1.33970087E-08
  723 1.31564248E-08
  724 1.36489093E-08
  725 1.34610522E-08
  726 1.28754364E-08
  727 1.25602867E-08
  728 1.32413014E-08
  729 1.29948801E-08
  730 1.23266392E-08
  731 1.18586490E-08
  732 1.18877049E-08
  733 1.23226563E-08
  734 1.29432326E-08
  735 1.34926172E-08
  736 1.39314768E-08
  737 1.40965881E-08
  738 1.42356605E-08
  739 1.42577661E-08
  740 1.43713567E-08
  741 1.43451997E-08
  742 1.44269045E-08
  743 1.44599602E-08
  744 1.45243801E-08
  745 1.44819139E-08
  746 1.45108474E-08
  747 1.45649978E-08
  748 1.45817859E-08
  749 1.45139191E-08
  750 1.44911326E-08
  751 1.45743910E-08
  752 1.45423025E-08
  753 1.44468005E-08
  754 1.44172886E-08
  755 1.44677641E-08
  756 1.44360107E-08
  757 1.43815395E-08
  758 1.43397618E-08
  759 1.43980210E-08
  760 1.43539815E-08
  761 1.44851371E-08
  762 1.44161584E-08
  763 1.43700280E-08
  764 1.44360215E-08
  765 1.43879940E-08
  766 1.42922552E-08
  767 1.42394296E-08
  768 1.43041736E-08
  769 1.42489934E-08
  770 1.41818215E-08
  771 1.41201073E-08
  772 1.41889697E-08
  773 1.41247789E-08
  774 1.43181064E-08
  775 1.42607746E-08
  776 1.43341711E-08
  777 1.42749175E-08
  778 1.41985519E-08
  779 1.41321119E-08
  780 1.42107409E-08
  781 1.41439844E-08
  782 1.40551116E-08
  783 1.39894635E-08
  784 1.40588057E-08
  785 1.39892577E-08
  786 1.39212058E-08
  787 1.38528758E-08
  788 1.39183937E-08
  789 1.38474816E-08
  790 1.40640938E-08
  791 1.39921924E-08
  792 1.40725208E-08
  793 1.39985413E-08
  794 1.39189627E-08
  795 1.38457045E-08
  796 1.39232220E-08
  797 1.38478891E-08
  798 1.37857979E-08
  799 1.37778906E-08
  800 1.37110468E-08
  801 1.36483804E-08
  802 1.35912651E-08
  803 1.37738265E-08
  804 1.37048010E-08
  805 1.37739853E-08
  806 1.37030226E-08
  807 1.36401072E-08
  808 1.35811682E-08
  809 1.36365237E-08
  810 1.35759552E-08
  811 1.35292860E-08
  812 1.34855806E-08
  813 1.35226600E-08
  814 1.34777924E-08
  815 1.34509396E-08
  816 1.34422653E-08
  817 1.34167122E-08
  818 1.34014686E-08
  819 1.33965739E-08
  820 1.34017907E-08
  821 1.33670365E-08
  822 1.32928891E-08
  823 1.33327631E-08
  824 1.33779038E-08
  825 1.33445136E-08
  826 1.33894869E-08
  827 1.33964713E-08
  828 1.34308929E-08
  829 1.34064548E-08
  830 1.34404048E-08
  831 1.34604210E-08
  832 1.38549057E-08
  833 1.34692150E-08
  834 1.38524138E-08
  835 1.34169890E-08
  836 1.34503289E-08
  837 1.34281004E-08
  838 1.34606850E-08
  839 1.38403095E-08
  840 1.38501347E-08
  841 1.38403415E-08
  842 1.38481305E-08
  843 1.38637839E-08
  844 1.38688092E-08
  845 1.38593769E-08
  846 1.38622793E-08
  847 1.38656417E-08
  848 1.38529677E-08
  849 1.38445816E-08
  850 1.38585695E-08
  851 1.38493570E-08
  852 1.38269219E-08
  853 1.38073137E-08
  854 1.38439062E-08
  855 1.38469074E-08
  856 1.37940822E-08
  857 1.37920555E-08
  858 1.38482705E-08
  859 1.39371260E-08
  860 1.40616516E-08
  861 1.41784905E-08
  862 1.42171848E-08
  863 1.42118478E-08
  864 1.41176732E-08
  865 1.39962919E-08
  866 1.37611112E-08
  867 1.34913597E-08
  868 1.32809075E-08
  869 1.33543952E-08
  870 1.35487960E-08
  871 1.38457126E-08
  872 1.41214545E-08
  873 1.43656650E-08
  874 1.45468583E-08
  875 1.46591994E-08
  876 1.46972590E-08
  877 1.46530207E-08
  878 1.45336260E-08
  879 1.44576656E-08
  880 1.44079559E-08
  881 1.44811283E-08
  882 1.44299700E-08
  883 1.45881281E-08
  884 1.44940528E-08
  885 1.43524667E-08
  886 1.42915453E-08
  887 1.43730695E-08
  888 1.43107558E-08
  889 1.42256864E-08
  890 1.41575099E-08
  891 1.42453049E-08
  892 1.41742326E-08
  893 1.43771195E-08
  894 1.42664088E-08
  895 1.41942618E-08
  896 1.42905347E-08
  897 1.42176625E-08
  898 1.40842973E-08
  899 1.40085469E-08
  900 1.40995978E-08
  901 1.40224117E-08
  902 1.39314471E-08
  903 1.38543444E-08
  904 1.39438698E-08
  905 1.38653317E-08
  906 1.41185534E-08
  907 1.40402904E-08
  908 1.41412458E-08
  909 1.40622822E-08
  910 1.39606688E-08
  911 1.38810545E-08
  912 1.39819620E-08
  913 1.39016496E-08
  914 1.37787086E-08
  915 1.37060844E-08
  916 1.37882868E-08
  917 1.37143047E-08
  918 1.36380307E-08
  919 1.35760515E-08
  920 1.36449723E-08
  921 1.35818231E-08
  922 1.38029482E-08
  923 1.37279352E-08
  924 1.38228484E-08
  925 1.37471502E-08
  926 1.36576219E-08
  927 1.35935627E-08
  928 1.36761708E-08
  929 1.36114767E-08
  930 1.35215243E-08
  931 1.34756337E-08
  932 1.35262630E-08
  933 1.34795012E-08
  934 1.34393145E-08
  935 1.34132132E-08
  936 1.34424913E-08
  937 1.34158910E-08
  938 1.35371843E-08
  939 1.34897145E-08
  940 1.35545071E-08
  941 1.35065021E-08
  942 1.34521218E-08
  943 1.34250733E-08
  944 1.34684405E-08
  945 1.34409969E-08
  946 1.33976680E-08
  947 1.33927106E-08
  948 1.34000414E-08
  949 1.33949691E-08
  950 1.33980872E-08
  951 1.34132953E-08
  952 1.34004077E-08
  953 1.34158360E-08
  954 1.34089137E-08
  955 1.34036668E-08
  956 1.34245200E-08
  957 1.34190339E-08
  958 1.34090581E-08
  959 1.34245535E-08
  960 1.34242605E-08
  961 1.34396593E-08
  962 1.34376310E-08
  963 1.34702414E-08
  964 1.34405274E-08
  965 1.34736036E-08
  966 1.35101778E-08
  967 1.35140904E-08
  968 1.35609667E-08
  969 1.34494103E-08
  970 1.34827323E-08
  971 1.34644788E-08
  972 1.34978126E-08
  973 1.35235266E-08
  974 1.35707540E-08
  975 1.35386567E-08
  976 1.35859614E-08
  977 1.36132092E-08
  978 1.36698266E-08
  979 1.36233745E-08
  980 1.36803821E-08
  981 1.36386766E-08
  982 1.36957872E-08
  983 1.37408315E-08
  984 1.38038561E-08
  985 1.37563406E-08
  986 1.38194635E-08
  987 1.38686778E-08
  988 1.38843734E-08
  989 1.39503817E-08
  990 1.40168935E-08
  991 1.40834032E-08
  992 1.31931192E-08
  993 1.30611154E-08
  994 1.31315651E-08
  995 1.32074991E-08
  996 1.31468687E-08
  997 1.32234605E-08
  998 1.32466155E-08
  999 1.33055152E-08
  1000 1.32601128E-08
  1001 1.33192369E-08
  1002 1.33571600E-08
  1003 1.34018250E-08
  1004 1.33707554E-08
  1005 1.34149632E-08
  1006 1.32749314E-08
  1007 1.33341230E-08
  1008 1.32911586E-08
  1009 1.33502490E-08
  1010 1.33853592E-08
  1011 1.34289537E-08
  1012 1.34010380E-08
  1013 1.34438575E-08
  1014 1.34398212E-08
  1015 1.34714990E-08
  1016 1.34521900E-08
  1017 1.34828053E-08
  1018 1.38409107E-08
  1019 1.38464796E-08
  1020 1.38421079E-08
  1021 1.38452786E-08
  1022 1.34652542E-08
  1023 1.38364870E-08
  1024 1.34790717E-08
  1025 1.38416435E-08
  1026 1.38440406E-08
  1027 1.38446452E-08
  1028 1.38468360E-08
  1029 1.38447206E-08
  1030 1.38419560E-08
  1031 1.38217744E-08
  1032 1.38318656E-08
  1033 1.37982220E-08
  1034 1.37533360E-08
  1035 1.36975832E-08
  1036 1.37209029E-08
  1037 1.38433312E-08
  1038 1.40314373E-08
  1039 1.42277110E-08
  1040 1.43578437E-08
  1041 1.44471840E-08
  1042 1.45018729E-08
  1043 1.45747237E-08
  1044 1.46098153E-08
  1045 1.46689485E-08
  1046 1.48283966E-08
  1047 1.48189607E-08
  1048 1.47677295E-08
  1049 1.47390653E-08
  1050 1.47430913E-08
  1051 1.47952556E-08
  1052 1.48489470E-08
  1053 1.48784338E-08
  1054 1.48638903E-08
  1055 1.47878316E-08
  1056 1.46343146E-08
  1057 1.44341384E-08
  1058 1.42962407E-08
  1059 1.44994907E-08
  1060 1.43626637E-08
  1061 1.41677031E-08
  1062 1.40884263E-08
  1063 1.41978962E-08
  1064 1.41186981E-08
  1065 1.40078003E-08
  1066 1.39271802E-08
  1067 1.40381638E-08
  1068 1.39576313E-08
  1069 1.42110470E-08
  1070 1.40520536E-08
  1071 1.38480630E-08
  1072 1.37720373E-08
  1073 1.38785825E-08
  1074 1.38025927E-08
  1075 1.37007186E-08
  1076 1.36356753E-08
  1077 1.37312671E-08
  1078 1.36661662E-08
  1079 1.38959756E-08
  1080 1.37549286E-08
  1081 1.35783509E-08
  1082 1.35299907E-08
  1083 1.36087287E-08
  1084 1.35601981E-08
  1085 1.34915791E-08
  1086 1.34637963E-08
  1087 1.35215597E-08
  1088 1.34934966E-08
  1089 1.36409325E-08
  1090 1.35636204E-08
  1091 1.34469952E-08
  1092 1.34412032E-08
  1093 1.34763668E-08
  1094 1.34702034E-08
  1095 1.34461437E-08
  1096 1.34612764E-08
  1097 1.34747367E-08
  1098 1.34894333E-08
  1099 1.35125517E-08
  1100 1.35059561E-08
  1101 1.35553582E-08
  1102 1.35482772E-08
  1103 1.35099658E-08
  1104 1.35240610E-08
  1105 1.35516561E-08
  1106 1.35649948E-08
  1107 1.34858487E-08
  1108 1.35189520E-08
  1109 1.35135470E-08
  1110 1.35461758E-08
  1111 1.35595796E-08
  1112 1.36066788E-08
  1113 1.35863183E-08
  1114 1.36329266E-08
  1115 1.35475099E-08
  1116 1.35794247E-08
  1117 1.35875831E-08
  1118 1.36185557E-08
  1119 1.36188180E-08
  1120 1.36646543E-08
  1121 1.36569468E-08
  1122 1.37017410E-08
  1123 1.36591962E-08
  1124 1.37161142E-08
  1125 1.36849514E-08
  1126 1.37413783E-08
  1127 1.37764773E-08
  1128 1.38394103E-08
  1129 1.38012544E-08
  1130 1.38637067E-08
  1131 1.37158956E-08
  1132 1.37715368E-08
  1133 1.37519183E-08
  1134 1.38064890E-08
  1135 1.38306327E-08
  1136 1.38923166E-08
  1137 1.38645210E-08
  1138 1.39251576E-08
  1139 1.39041288E-08
  1140 1.39699430E-08
  1141 1.39279521E-08
  1142 1.39933021E-08
  1143 1.40362573E-08
  1144 1.41025654E-08
  1145 1.40591616E-08
  1146 1.41250251E-08
  1147 1.39558103E-08
  1148 1.40204284E-08
  1149 1.39876286E-08
  1150 1.40512548E-08
  1151 1.40855785E-08
  1152 1.41507564E-08
  1153 1.41154473E-08
  1154 1.41797046E-08
  1155 1.41684447E-08
  1156 1.42335480E-08
  1157 1.41904700E-08
  1158 1.42551493E-08
  1159 1.42975955E-08
  1160 1.43603661E-08
  1161 1.43187831E-08
  1162 1.43811502E-08
  1163 1.42155403E-08
  1164 1.42795835E-08
  1165 1.42436065E-08
  1166 1.43068063E-08
  1167 1.43426058E-08
  1168 1.44043855E-08
  1169 1.43690236E-08
  1170 1.44300357E-08
  1171 1.26907400E-08
  1172 1.29090570E-08
  1173 1.28237903E-08
  1174 1.29310935E-08
  1175 1.29809362E-08
  1176 1.30774286E-08
  1177 1.29984063E-08
  1178 1.30959870E-08
  1179 1.31640580E-08
  1180 1.32411117E-08
  1181 1.31832658E-08
  1182 1.32605679E-08
  1183 1.30185491E-08
  1184 1.31169514E-08
  1185 1.30415570E-08
  1186 1.31404868E-08
  1187 1.32046309E-08
  1188 1.32819503E-08
  1189 1.32282969E-08
  1190 1.33053875E-08
  1191 1.33088883E-08
  1192 1.33676981E-08
  1193 1.33282218E-08
  1194 1.33865621E-08
  1195 1.34178678E-08
  1196 1.34597461E-08
  1197 1.34359345E-08
  1198 1.34767035E-08
  1199 1.33492683E-08
  1200 1.34069423E-08
  1201 1.33721457E-08
  1202 1.34289508E-08
  1203 1.34553357E-08
  1204 1.34948273E-08
  1205 1.34761820E-08
  1206 1.35142305E-08
  1207 1.34937129E-08
  1208 1.38479416E-08
  1209 1.35092627E-08
  1210 1.38555313E-08
  1211 1.38506875E-08
  1212 1.38682409E-08
  1213 1.38605083E-08
  1214 1.37957006E-08
  1215 1.36618353E-08
  1216 1.35565695E-08
  1217 1.35703941E-08
  1218 1.37312528E-08
  1219 1.39898414E-08
  1220 1.42924767E-08
  1221 1.44890642E-08
  1222 1.46775035E-08
  1223 1.48558008E-08
  1224 1.50966469E-08
  1225 1.53593754E-08
  1226 1.56900538E-08
  1227 1.60442876E-08
  1228 1.60458073E-08
  1229 1.57973353E-08
  1230 1.54914992E-08
  1231 1.52877837E-08
  1232 1.51794080E-08
  1233 1.51249654E-08
  1234 1.50845573E-08
  1235 1.50281364E-08
  1236 1.49316172E-08
  1237 1.47764214E-08
  1238 1.45504323E-08
  1239 1.42645320E-08
  1240 1.39712443E-08
  1241 1.37540624E-08
  1242 1.36260815E-08
  1243 1.36304878E-08
  1244 1.37465296E-08
  1245 1.37475169E-08
  1246 1.36722179E-08
  1247 1.37004988E-08
  1248 1.37439980E-08
  1249 1.37492001E-08
  1250 1.37911741E-08
  1251 1.37839572E-08
  1252 1.38501107E-08
  1253 1.37928475E-08
  1254 1.38460790E-08
  1255 1.38384544E-08
  1256 1.38900993E-08
  1257 1.39027781E-08
  1258 1.39621025E-08
  1259 1.39452167E-08
  1260 1.40029826E-08
  1261 1.39389540E-08
  1262 1.40434222E-08
  1263 1.40732458E-08
  1264 1.41977523E-08
  1265 1.41572279E-08
  1266 1.42752515E-08
  1267 1.43220332E-08
  1268 1.44433023E-08
  1269 1.43936112E-08
  1270 1.45095451E-08
  1271 1.02827342E-08
  1272 1.05347622E-08
  1273 1.08407586E-08
  1274 1.11200958E-08
  1275 1.08400337E-08
  1276 1.11288410E-08
  1277 1.13832311E-08
  1278 1.16292864E-08
  1279 1.13997202E-08
  1280 1.16519741E-08
  1281 1.20460231E-08
  1282 1.22467345E-08
  1283 1.24268680E-08
  1284 1.18579435E-08
  1285 1.20764558E-08
  1286 1.18854761E-08
  1287 1.21077673E-08
  1288 1.22735843E-08
  1289 1.24541487E-08
  1290 1.23075679E-08
  1291 1.24899726E-08
  1292 1.25655850E-08
  1293 1.27136753E-08
  1294 1.25913038E-08
  1295 1.27411518E-08
  1296 1.28483560E-08
  1297 1.29565397E-08
  1298 1.28770010E-08
  1299 1.29856197E-08
  1300 1.26224282E-08
  1301 1.27734726E-08
  1302 1.26557664E-08
  1303 1.28109228E-08
  1304 1.29099806E-08
  1305 1.30326279E-08
  1306 1.29475362E-08
  1307 1.30698974E-08
  1308 1.30676234E-08
  1309 1.31667609E-08
  1310 1.30969412E-08
  1311 1.31959429E-08
  1312 1.32544125E-08
  1313 1.33310143E-08
  1314 1.32831297E-08
  1315 1.33589718E-08
  1316 1.31296999E-08
  1317 1.32282015E-08
  1318 1.31660826E-08
  1319 1.32637027E-08
  1320 1.33699437E-08
  1321 1.34390021E-08
  1322 1.35293975E-08
  1323 1.34959317E-08
  1324 1.35795514E-08
  1325 1.39057564E-08
  1326 1.37873622E-08
  1327 1.35885074E-08
  1328 1.34315270E-08
  1329 1.34369099E-08
  1330 1.36378570E-08
  1331 1.39814821E-08
  1332 1.43435217E-08
  1333 1.46699718E-08
  1334 1.48874195E-08
  1335 1.51614133E-08
  1336 1.55241820E-08
  1337 1.59424821E-08
  1338 1.64506618E-08
  1339 1.69069038E-08
  1340 1.69139082E-08
  1341 1.65414157E-08
  1342 1.60673452E-08
  1343 1.57120992E-08
  1344 1.54895048E-08
  1345 1.53551842E-08
  1346 1.52632628E-08
  1347 1.51790145E-08
  1348 1.50750032E-08
  1349 1.49317958E-08
  1350 1.47316318E-08
  1351 1.44822359E-08
  1352 1.42256274E-08
  1353 1.40303993E-08
  1354 1.39541679E-08
  1355 1.40076198E-08
  1356 1.41577944E-08
  1357 1.43582311E-08
  1358 1.45718847E-08
  1359 7.47938570E-09
  1360 7.35680866E-09
  1361 7.43503572E-09
  1362 7.32930017E-09
  1363 7.39725962E-09
  1364 7.55483431E-09
  1365 7.79095346E-09
  1366 8.44015333E-09
  1367 8.09436861E-09
  1368 8.44393847E-09
  1369 8.80876332E-09
  1370 9.16625381E-09
  1371 8.78893555E-09
  1372 9.19471252E-09
  1373 9.92098114E-09
  1374 9.54520241E-09
  1375 9.91855949E-09
  1376 1.02729931E-08
  1377 1.06126244E-08
  1378 1.02828617E-08
  1379 1.06327737E-08
  1380 9.55493636E-09
  1381 9.94015325E-09
  1382 9.59391432E-09
  1383 9.98804443E-09
  1384 1.03144313E-08
  1385 1.06724220E-08
  1386 1.03695119E-08
  1387 1.07329908E-08
  1388 1.09273900E-08
  1389 1.12322071E-08
  1390 1.09646708E-08
  1391 1.12669933E-08
  1392 1.14279818E-08
  1393 1.16852631E-08
  1394 1.15570580E-08
  1395 1.18255216E-08
  1396 1.10105997E-08
  1397 1.13172840E-08
  1398 1.10750734E-08
  1399 1.13938829E-08
  1400 1.16105580E-08
  1401 1.18810210E-08
  1402 1.16784892E-08
  1403 1.19492281E-08
  1404 1.19225199E-08