# File generated by Flopy version 3.9.1 on 02/12/2026 at 01:09:22.
BEGIN options
END options

BEGIN timing
  TDIS6  struc_caseD.tdis
END timing

BEGIN models
  gwf6  struc_caseD.nam  struc_cased
END models

BEGIN exchanges
END exchanges

BEGIN solutiongroup  1
  ims6  struc_caseD.ims  struc_cased
END solutiongroup  1

