# File generated by Flopy version 3.9.1 on 02/12/2026 at 01:09:22.
BEGIN options
END options

BEGIN packages
  dis6  struc_caseD.dis  dis
  ic6  struc_caseD.ic  ic
  chd6  struc_caseD.chd  chd
  npf6  struc_caseD.npf  npf
  wel6  struc_caseD.wel  well_package
  rch6  struc_caseD.rch  rch
  evt6  struc_caseD.evt  evt
  oc6  struc_caseD.oc  oc
END packages

