# File generated by Flopy version 3.9.1 on 02/12/2026 at 01:09:24.
BEGIN options
  SAVE_FLOWS
END options

BEGIN dimensions
  MAXBOUND  4424
END dimensions

BEGIN period  1
  1 7 316 0.00000000E+00
  1 7 317 0.00000000E+00
  1 7 318 0.00000000E+00
  1 7 319 0.00000000E+00
  1 7 320 0.00000000E+00
  1 7 321 0.00000000E+00
  1 7 322 0.00000000E+00
  1 8 314 0.00000000E+00
  1 8 315 0.00000000E+00
  1 8 316 0.00000000E+00
  1 8 317 0.00000000E+00
  1 8 318 0.00000000E+00
  1 8 319 0.00000000E+00
  1 8 320 0.00000000E+00
  1 8 321 0.00000000E+00
  1 8 322 0.00000000E+00
  1 8 323 0.00000000E+00
  1 8 324 0.00000000E+00
  1 8 325 0.00000000E+00
  1 9 313 0.00000000E+00
  1 9 314 0.00000000E+00
  1 9 315 0.00000000E+00
  1 9 316 0.00000000E+00
  1 9 317 0.00000000E+00
  1 9 318 0.00000000E+00
  1 9 319 0.00000000E+00
  1 9 320 0.00000000E+00
  1 9 321 0.00000000E+00
  1 9 322 0.00000000E+00
  1 9 323 0.00000000E+00
  1 9 324 0.00000000E+00
  1 9 325 0.00000000E+00
  1 9 326 0.00000000E+00
  1 9 327 0.00000000E+00
  1 9 328 0.00000000E+00
  1 9 329 0.00000000E+00
  1 9 330 0.00000000E+00
  1 9 331 0.00000000E+00
  1 10 311 0.00000000E+00
  1 10 312 0.00000000E+00
  1 10 313 0.00000000E+00
  1 10 314 0.00000000E+00
  1 10 315 0.00000000E+00
  1 10 316 0.00000000E+00
  1 10 317 0.00000000E+00
  1 10 318 0.00000000E+00
  1 10 319 0.00000000E+00
  1 10 320 0.00000000E+00
  1 10 321 0.00000000E+00
  1 10 322 0.00000000E+00
  1 10 323 0.00000000E+00
  1 10 324 0.00000000E+00
  1 10 325 0.00000000E+00
  1 10 326 0.00000000E+00
  1 10 327 0.00000000E+00
  1 10 328 0.00000000E+00
  1 10 329 0.00000000E+00
  1 10 330 0.00000000E+00
  1 10 331 0.00000000E+00
  1 10 332 0.00000000E+00
  1 10 333 0.00000000E+00
  1 10 334 0.00000000E+00
  1 10 335 0.00000000E+00
  1 10 336 0.00000000E+00
  1 10 337 0.00000000E+00
  1 10 338 0.00000000E+00
  1 10 339 0.00000000E+00
  1 10 340 0.00000000E+00
  1 10 341 0.00000000E+00
  1 10 342 0.00000000E+00
  1 10 343 0.00000000E+00
  1 11 310 0.00000000E+00
  1 11 311 0.00000000E+00
  1 11 312 0.00000000E+00
  1 11 313 0.00000000E+00
  1 11 314 0.00000000E+00
  1 11 315 0.00000000E+00
  1 11 316 0.00000000E+00
  1 11 317 0.00000000E+00
  1 11 318 0.00000000E+00
  1 11 319 0.00000000E+00
  1 11 320 0.00000000E+00
  1 11 321 0.00000000E+00
  1 11 322 0.00000000E+00
  1 11 323 0.00000000E+00
  1 11 324 0.00000000E+00
  1 11 325 0.00000000E+00
  1 11 326 0.00000000E+00
  1 11 327 0.00000000E+00
  1 11 328 0.00000000E+00
  1 11 329 0.00000000E+00
  1 11 330 0.00000000E+00
  1 11 331 0.00000000E+00
  1 11 332 0.00000000E+00
  1 11 333 0.00000000E+00
  1 11 334 0.00000000E+00
  1 11 335 0.00000000E+00
  1 11 336 0.00000000E+00
  1 11 337 0.00000000E+00
  1 11 338 0.00000000E+00
  1 11 339 0.00000000E+00
  1 11 340 0.00000000E+00
  1 11 341 0.00000000E+00
  1 11 342 0.00000000E+00
  1 11 343 0.00000000E+00
  1 11 344 0.00000000E+00
  1 11 345 0.00000000E+00
  1 12 308 0.00000000E+00
  1 12 309 0.00000000E+00
  1 12 310 0.00000000E+00
  1 12 311 0.00000000E+00
  1 12 312 0.00000000E+00
  1 12 313 0.00000000E+00
  1 12 314 0.00000000E+00
  1 12 315 0.00000000E+00
  1 12 316 0.00000000E+00
  1 12 317 0.00000000E+00
  1 12 318 0.00000000E+00
  1 12 319 0.00000000E+00
  1 12 322 0.00000000E+00
  1 12 323 0.00000000E+00
  1 12 324 0.00000000E+00
  1 12 325 0.00000000E+00
  1 12 326 0.00000000E+00
  1 12 327 0.00000000E+00
  1 12 328 0.00000000E+00
  1 12 329 0.00000000E+00
  1 12 330 0.00000000E+00
  1 12 331 0.00000000E+00
  1 12 332 0.00000000E+00
  1 12 333 0.00000000E+00
  1 12 334 0.00000000E+00
  1 12 335 0.00000000E+00
  1 12 336 0.00000000E+00
  1 12 337 0.00000000E+00
  1 12 338 0.00000000E+00
  1 12 339 0.00000000E+00
  1 12 340 0.00000000E+00
  1 12 341 0.00000000E+00
  1 12 342 0.00000000E+00
  1 12 343 0.00000000E+00
  1 12 344 0.00000000E+00
  1 12 345 0.00000000E+00
  1 12 346 0.00000000E+00
  1 12 347 0.00000000E+00
  1 13 307 0.00000000E+00
  1 13 308 0.00000000E+00
  1 13 309 0.00000000E+00
  1 13 310 0.00000000E+00
  1 13 311 0.00000000E+00
  1 13 312 0.00000000E+00
  1 13 313 0.00000000E+00
  1 13 314 0.00000000E+00
  1 13 315 0.00000000E+00
  1 13 316 0.00000000E+00
  1 13 317 0.00000000E+00
  1 13 318 0.00000000E+00
  1 13 323 0.00000000E+00
  1 13 324 0.00000000E+00
  1 13 325 0.00000000E+00
  1 13 326 0.00000000E+00
  1 13 327 0.00000000E+00
  1 13 328 0.00000000E+00
  1 13 329 0.00000000E+00
  1 13 330 0.00000000E+00
  1 13 331 0.00000000E+00
  1 13 332 0.00000000E+00
  1 13 333 0.00000000E+00
  1 13 334 0.00000000E+00
  1 13 335 0.00000000E+00
  1 13 336 0.00000000E+00
  1 13 337 0.00000000E+00
  1 13 338 0.00000000E+00
  1 13 339 0.00000000E+00
  1 13 340 0.00000000E+00
  1 13 341 0.00000000E+00
  1 13 342 0.00000000E+00
  1 13 343 0.00000000E+00
  1 13 344 0.00000000E+00
  1 13 345 0.00000000E+00
  1 13 346 0.00000000E+00
  1 13 347 0.00000000E+00
  1 13 348 0.00000000E+00
  1 13 349 0.00000000E+00
  1 14 306 0.00000000E+00
  1 14 307 0.00000000E+00
  1 14 308 0.00000000E+00
  1 14 309 0.00000000E+00
  1 14 310 0.00000000E+00
  1 14 311 0.00000000E+00
  1 14 312 0.00000000E+00
  1 14 313 0.00000000E+00
  1 14 314 0.00000000E+00
  1 14 315 0.00000000E+00
  1 14 316 0.00000000E+00
  1 14 317 0.00000000E+00
  1 14 324 0.00000000E+00
  1 14 325 0.00000000E+00
  1 14 326 0.00000000E+00
  1 14 327 0.00000000E+00
  1 14 328 0.00000000E+00
  1 14 329 0.00000000E+00
  1 14 330 0.00000000E+00
  1 14 331 0.00000000E+00
  1 14 332 0.00000000E+00
  1 14 333 0.00000000E+00
  1 14 334 0.00000000E+00
  1 14 335 0.00000000E+00
  1 14 336 0.00000000E+00
  1 14 337 0.00000000E+00
  1 14 338 0.00000000E+00
  1 14 339 0.00000000E+00
  1 14 340 0.00000000E+00
  1 14 341 0.00000000E+00
  1 14 342 0.00000000E+00
  1 14 343 0.00000000E+00
  1 14 344 0.00000000E+00
  1 14 345 0.00000000E+00
  1 14 346 0.00000000E+00
  1 14 347 0.00000000E+00
  1 14 348 0.00000000E+00
  1 14 349 0.00000000E+00
  1 14 350 0.00000000E+00
  1 14 351 0.00000000E+00
  1 15 305 0.00000000E+00
  1 15 306 0.00000000E+00
  1 15 307 0.00000000E+00
  1 15 308 0.00000000E+00
  1 15 309 0.00000000E+00
  1 15 310 0.00000000E+00
  1 15 311 0.00000000E+00
  1 15 312 0.00000000E+00
  1 15 313 0.00000000E+00
  1 15 314 0.00000000E+00
  1 15 329 0.00000000E+00
  1 15 330 0.00000000E+00
  1 15 331 0.00000000E+00
  1 15 332 0.00000000E+00
  1 15 333 0.00000000E+00
  1 15 334 0.00000000E+00
  1 15 335 0.00000000E+00
  1 15 336 0.00000000E+00
  1 15 337 0.00000000E+00
  1 15 338 0.00000000E+00
  1 15 339 0.00000000E+00
  1 15 340 0.00000000E+00
  1 15 341 0.00000000E+00
  1 15 342 0.00000000E+00
  1 15 343 0.00000000E+00
  1 15 344 0.00000000E+00
  1 15 345 0.00000000E+00
  1 15 346 0.00000000E+00
  1 15 347 0.00000000E+00
  1 15 348 0.00000000E+00
  1 15 349 0.00000000E+00
  1 15 350 0.00000000E+00
  1 15 351 0.00000000E+00
  1 15 352 0.00000000E+00
  1 16 304 0.00000000E+00
  1 16 305 0.00000000E+00
  1 16 306 0.00000000E+00
  1 16 307 0.00000000E+00
  1 16 308 0.00000000E+00
  1 16 309 0.00000000E+00
  1 16 310 0.00000000E+00
  1 16 311 0.00000000E+00
  1 16 312 0.00000000E+00
  1 16 330 0.00000000E+00
  1 16 331 0.00000000E+00
  1 16 332 0.00000000E+00
  1 16 333 0.00000000E+00
  1 16 334 0.00000000E+00
  1 16 335 0.00000000E+00
  1 16 336 0.00000000E+00
  1 16 337 0.00000000E+00
  1 16 338 0.00000000E+00
  1 16 339 0.00000000E+00
  1 16 340 0.00000000E+00
  1 16 341 0.00000000E+00
  1 16 342 0.00000000E+00
  1 16 343 0.00000000E+00
  1 16 344 0.00000000E+00
  1 16 345 0.00000000E+00
  1 16 346 0.00000000E+00
  1 16 347 0.00000000E+00
  1 16 348 0.00000000E+00
  1 16 349 0.00000000E+00
  1 16 350 0.00000000E+00
  1 16 351 0.00000000E+00
  1 16 352 0.00000000E+00
  1 16 353 0.00000000E+00
  1 16 354 0.00000000E+00
  1 17 285 0.00000000E+00
  1 17 304 0.00000000E+00
  1 17 305 0.00000000E+00
  1 17 306 0.00000000E+00
  1 17 307 0.00000000E+00
  1 17 308 0.00000000E+00
  1 17 309 0.00000000E+00
  1 17 310 0.00000000E+00
  1 17 311 0.00000000E+00
  1 17 332 0.00000000E+00
  1 17 333 0.00000000E+00
  1 17 334 0.00000000E+00
  1 17 335 0.00000000E+00
  1 17 336 0.00000000E+00
  1 17 337 0.00000000E+00
  1 17 338 0.00000000E+00
  1 17 339 0.00000000E+00
  1 17 340 0.00000000E+00
  1 17 341 0.00000000E+00
  1 17 342 0.00000000E+00
  1 17 343 0.00000000E+00
  1 17 344 0.00000000E+00
  1 17 345 0.00000000E+00
  1 17 346 0.00000000E+00
  1 17 347 0.00000000E+00
  1 17 348 0.00000000E+00
  1 17 349 0.00000000E+00
  1 17 350 0.00000000E+00
  1 17 351 0.00000000E+00
  1 17 352 0.00000000E+00
  1 17 353 0.00000000E+00
  1 17 354 0.00000000E+00
  1 17 355 0.00000000E+00
  1 17 356 0.00000000E+00
  1 18 280 0.00000000E+00
  1 18 281 0.00000000E+00
  1 18 282 0.00000000E+00
  1 18 283 0.00000000E+00
  1 18 284 0.00000000E+00
  1 18 285 0.00000000E+00
  1 18 286 0.00000000E+00
  1 18 287 0.00000000E+00
  1 18 288 0.00000000E+00
  1 18 302 0.00000000E+00
  1 18 303 0.00000000E+00
  1 18 304 0.00000000E+00
  1 18 305 0.00000000E+00
  1 18 306 0.00000000E+00
  1 18 307 0.00000000E+00
  1 18 308 0.00000000E+00
  1 18 309 0.00000000E+00
  1 18 310 0.00000000E+00
  1 18 335 0.00000000E+00
  1 18 336 0.00000000E+00
  1 18 337 0.00000000E+00
  1 18 338 0.00000000E+00
  1 18 339 0.00000000E+00
  1 18 340 0.00000000E+00
  1 18 341 0.00000000E+00
  1 18 342 0.00000000E+00
  1 18 343 0.00000000E+00
  1 18 344 0.00000000E+00
  1 18 345 0.00000000E+00
  1 18 346 0.00000000E+00
  1 18 347 0.00000000E+00
  1 18 348 0.00000000E+00
  1 18 349 0.00000000E+00
  1 18 350 0.00000000E+00
  1 18 351 0.00000000E+00
  1 18 352 0.00000000E+00
  1 18 353 0.00000000E+00
  1 18 354 0.00000000E+00
  1 18 355 0.00000000E+00
  1 18 356 0.00000000E+00
  1 18 357 0.00000000E+00
  1 19 276 0.00000000E+00
  1 19 277 0.00000000E+00
  1 19 278 0.00000000E+00
  1 19 279 0.00000000E+00
  1 19 280 0.00000000E+00
  1 19 281 0.00000000E+00
  1 19 282 0.00000000E+00
  1 19 283 0.00000000E+00
  1 19 284 0.00000000E+00
  1 19 285 0.00000000E+00
  1 19 286 0.00000000E+00
  1 19 287 0.00000000E+00
  1 19 288 0.00000000E+00
  1 19 289 0.00000000E+00
  1 19 300 0.00000000E+00
  1 19 301 0.00000000E+00
  1 19 302 0.00000000E+00
  1 19 303 0.00000000E+00
  1 19 304 0.00000000E+00
  1 19 305 0.00000000E+00
  1 19 306 0.00000000E+00
  1 19 307 0.00000000E+00
  1 19 308 0.00000000E+00
  1 19 337 0.00000000E+00
  1 19 338 0.00000000E+00
  1 19 339 0.00000000E+00
  1 19 340 0.00000000E+00
  1 19 341 0.00000000E+00
  1 19 342 0.00000000E+00
  1 19 343 0.00000000E+00
  1 19 344 0.00000000E+00
  1 19 345 0.00000000E+00
  1 19 346 0.00000000E+00
  1 19 347 0.00000000E+00
  1 19 348 0.00000000E+00
  1 19 349 0.00000000E+00
  1 19 350 0.00000000E+00
  1 19 351 0.00000000E+00
  1 19 352 0.00000000E+00
  1 19 353 0.00000000E+00
  1 19 354 0.00000000E+00
  1 19 355 0.00000000E+00
  1 19 356 0.00000000E+00
  1 19 357 0.00000000E+00
  1 19 358 0.00000000E+00
  1 19 359 0.00000000E+00
  1 20 273 0.00000000E+00
  1 20 274 0.00000000E+00
  1 20 275 0.00000000E+00
  1 20 276 0.00000000E+00
  1 20 277 0.00000000E+00
  1 20 278 0.00000000E+00
  1 20 279 0.00000000E+00
  1 20 280 0.00000000E+00
  1 20 281 0.00000000E+00
  1 20 285 0.00000000E+00
  1 20 286 0.00000000E+00
  1 20 287 0.00000000E+00
  1 20 288 0.00000000E+00
  1 20 289 0.00000000E+00
  1 20 290 0.00000000E+00
  1 20 291 0.00000000E+00
  1 20 292 0.00000000E+00
  1 20 294 0.00000000E+00
  1 20 295 0.00000000E+00
  1 20 296 0.00000000E+00
  1 20 297 0.00000000E+00
  1 20 298 0.00000000E+00
  1 20 299 0.00000000E+00
  1 20 300 0.00000000E+00
  1 20 301 0.00000000E+00
  1 20 302 0.00000000E+00
  1 20 303 0.00000000E+00
  1 20 304 0.00000000E+00
  1 20 339 0.00000000E+00
  1 20 340 0.00000000E+00
  1 20 341 0.00000000E+00
  1 20 342 0.00000000E+00
  1 20 343 0.00000000E+00
  1 20 344 0.00000000E+00
  1 20 345 0.00000000E+00
  1 20 346 0.00000000E+00
  1 20 347 0.00000000E+00
  1 20 348 0.00000000E+00
  1 20 349 0.00000000E+00
  1 20 351 0.00000000E+00
  1 20 352 0.00000000E+00
  1 20 353 0.00000000E+00
  1 20 354 0.00000000E+00
  1 20 355 0.00000000E+00
  1 20 356 0.00000000E+00
  1 20 357 0.00000000E+00
  1 20 358 0.00000000E+00
  1 20 359 0.00000000E+00
  1 20 360 0.00000000E+00
  1 20 361 0.00000000E+00
  1 21 270 0.00000000E+00
  1 21 271 0.00000000E+00
  1 21 272 0.00000000E+00
  1 21 273 0.00000000E+00
  1 21 274 0.00000000E+00
  1 21 275 0.00000000E+00
  1 21 276 0.00000000E+00
  1 21 277 0.00000000E+00
  1 21 278 0.00000000E+00
  1 21 279 0.00000000E+00
  1 21 288 0.00000000E+00
  1 21 289 0.00000000E+00
  1 21 290 0.00000000E+00
  1 21 291 0.00000000E+00
  1 21 292 0.00000000E+00
  1 21 293 0.00000000E+00
  1 21 294 0.00000000E+00
  1 21 295 0.00000000E+00
  1 21 296 0.00000000E+00
  1 21 297 0.00000000E+00
  1 21 298 0.00000000E+00
  1 21 299 0.00000000E+00
  1 21 300 0.00000000E+00
  1 21 301 0.00000000E+00
  1 21 343 0.00000000E+00
  1 21 344 0.00000000E+00
  1 21 345 0.00000000E+00
  1 21 346 0.00000000E+00
  1 21 347 0.00000000E+00
  1 21 348 0.00000000E+00
  1 21 349 0.00000000E+00
  1 21 354 0.00000000E+00
  1 21 355 0.00000000E+00
  1 21 356 0.00000000E+00
  1 21 357 0.00000000E+00
  1 21 358 0.00000000E+00
  1 21 359 0.00000000E+00
  1 21 360 0.00000000E+00
  1 21 361 0.00000000E+00
  1 21 362 0.00000000E+00
  1 21 363 0.00000000E+00
  1 22 267 0.00000000E+00
  1 22 268 0.00000000E+00
  1 22 269 0.00000000E+00
  1 22 270 0.00000000E+00
  1 22 271 0.00000000E+00
  1 22 272 0.00000000E+00
  1 22 273 0.00000000E+00
  1 22 274 0.00000000E+00
  1 22 290 0.00000000E+00
  1 22 291 0.00000000E+00
  1 22 292 0.00000000E+00
  1 22 293 0.00000000E+00
  1 22 294 0.00000000E+00
  1 22 295 0.00000000E+00
  1 22 296 0.00000000E+00
  1 22 297 0.00000000E+00
  1 22 298 0.00000000E+00
  1 22 357 0.00000000E+00
  1 22 358 0.00000000E+00
  1 22 359 0.00000000E+00
  1 22 360 0.00000000E+00
  1 22 361 0.00000000E+00
  1 22 362 0.00000000E+00
  1 22 363 0.00000000E+00
  1 22 364 0.00000000E+00
  1 22 365 0.00000000E+00
  1 23 261 0.00000000E+00
  1 23 262 0.00000000E+00
  1 23 263 0.00000000E+00
  1 23 264 0.00000000E+00
  1 23 265 0.00000000E+00
  1 23 266 0.00000000E+00
  1 23 267 0.00000000E+00
  1 23 268 0.00000000E+00
  1 23 269 0.00000000E+00
  1 23 270 0.00000000E+00
  1 23 271 0.00000000E+00
  1 23 358 0.00000000E+00
  1 23 359 0.00000000E+00
  1 23 360 0.00000000E+00
  1 23 361 0.00000000E+00
  1 23 362 0.00000000E+00
  1 23 363 0.00000000E+00
  1 23 364 0.00000000E+00
  1 23 365 0.00000000E+00
  1 23 366 0.00000000E+00
  1 23 367 0.00000000E+00
  1 23 368 0.00000000E+00
  1 24 257 0.00000000E+00
  1 24 258 0.00000000E+00
  1 24 259 0.00000000E+00
  1 24 260 0.00000000E+00
  1 24 261 0.00000000E+00
  1 24 262 0.00000000E+00
  1 24 263 0.00000000E+00
  1 24 264 0.00000000E+00
  1 24 265 0.00000000E+00
  1 24 266 0.00000000E+00
  1 24 267 0.00000000E+00
  1 24 268 0.00000000E+00
  1 24 359 0.00000000E+00
  1 24 360 0.00000000E+00
  1 24 361 0.00000000E+00
  1 24 362 0.00000000E+00
  1 24 363 0.00000000E+00
  1 24 364 0.00000000E+00
  1 24 365 0.00000000E+00
  1 24 366 0.00000000E+00
  1 24 367 0.00000000E+00
  1 24 368 0.00000000E+00
  1 24 369 0.00000000E+00
  1 24 370 0.00000000E+00
  1 25 253 0.00000000E+00
  1 25 254 0.00000000E+00
  1 25 255 0.00000000E+00
  1 25 256 0.00000000E+00
  1 25 257 0.00000000E+00
  1 25 258 0.00000000E+00
  1 25 259 0.00000000E+00
  1 25 260 0.00000000E+00
  1 25 261 0.00000000E+00
  1 25 262 0.00000000E+00
  1 25 263 0.00000000E+00
  1 25 264 0.00000000E+00
  1 25 265 0.00000000E+00
  1 25 266 0.00000000E+00
  1 25 360 0.00000000E+00
  1 25 361 0.00000000E+00
  1 25 362 0.00000000E+00
  1 25 363 0.00000000E+00
  1 25 364 0.00000000E+00
  1 25 365 0.00000000E+00
  1 25 366 0.00000000E+00
  1 25 367 0.00000000E+00
  1 25 368 0.00000000E+00
  1 25 369 0.00000000E+00
  1 25 370 0.00000000E+00
  1 25 371 0.00000000E+00
  1 25 372 0.00000000E+00
  1 25 373 0.00000000E+00
  1 26 251 0.00000000E+00
  1 26 252 0.00000000E+00
  1 26 253 0.00000000E+00
  1 26 254 0.00000000E+00
  1 26 255 0.00000000E+00
  1 26 256 0.00000000E+00
  1 26 257 0.00000000E+00
  1 26 258 0.00000000E+00
  1 26 259 0.00000000E+00
  1 26 260 0.00000000E+00
  1 26 360 0.00000000E+00
  1 26 361 0.00000000E+00
  1 26 362 0.00000000E+00
  1 26 363 0.00000000E+00
  1 26 364 0.00000000E+00
  1 26 365 0.00000000E+00
  1 26 366 0.00000000E+00
  1 26 367 0.00000000E+00
  1 26 368 0.00000000E+00
  1 26 369 0.00000000E+00
  1 26 370 0.00000000E+00
  1 26 371 0.00000000E+00
  1 26 372 0.00000000E+00
  1 26 373 0.00000000E+00
  1 26 374 0.00000000E+00
  1 26 375 0.00000000E+00
  1 26 376 0.00000000E+00
  1 27 251 0.00000000E+00
  1 27 252 0.00000000E+00
  1 27 253 0.00000000E+00
  1 27 254 0.00000000E+00
  1 27 255 0.00000000E+00
  1 27 256 0.00000000E+00
  1 27 361 0.00000000E+00
  1 27 362 0.00000000E+00
  1 27 363 0.00000000E+00
  1 27 364 0.00000000E+00
  1 27 365 0.00000000E+00
  1 27 366 0.00000000E+00
  1 27 367 0.00000000E+00
  1 27 368 0.00000000E+00
  1 27 369 0.00000000E+00
  1 27 370 0.00000000E+00
  1 27 371 0.00000000E+00
  1 27 372 0.00000000E+00
  1 27 373 0.00000000E+00
  1 27 374 0.00000000E+00
  1 27 375 0.00000000E+00
  1 27 376 0.00000000E+00
  1 27 377 0.00000000E+00
  1 27 378 0.00000000E+00
  1 27 379 0.00000000E+00
  1 27 380 0.00000000E+00
  1 27 381 0.00000000E+00
  1 28 250 0.00000000E+00
  1 28 251 0.00000000E+00
  1 28 252 0.00000000E+00
  1 28 362 0.00000000E+00
  1 28 363 0.00000000E+00
  1 28 364 0.00000000E+00
  1 28 365 0.00000000E+00
  1 28 366 0.00000000E+00
  1 28 367 0.00000000E+00
  1 28 368 0.00000000E+00
  1 28 369 0.00000000E+00
  1 28 370 0.00000000E+00
  1 28 371 0.00000000E+00
  1 28 372 0.00000000E+00
  1 28 373 0.00000000E+00
  1 28 374 0.00000000E+00
  1 28 375 0.00000000E+00
  1 28 376 0.00000000E+00
  1 28 377 0.00000000E+00
  1 28 378 0.00000000E+00
  1 28 379 0.00000000E+00
  1 28 380 0.00000000E+00
  1 28 381 0.00000000E+00
  1 28 382 0.00000000E+00
  1 28 383 0.00000000E+00
  1 28 384 0.00000000E+00
  1 29 250 0.00000000E+00
  1 29 251 0.00000000E+00
  1 29 363 0.00000000E+00
  1 29 364 0.00000000E+00
  1 29 365 0.00000000E+00
  1 29 366 0.00000000E+00
  1 29 367 0.00000000E+00
  1 29 368 0.00000000E+00
  1 29 369 0.00000000E+00
  1 29 370 0.00000000E+00
  1 29 371 0.00000000E+00
  1 29 372 0.00000000E+00
  1 29 373 0.00000000E+00
  1 29 374 0.00000000E+00
  1 29 375 0.00000000E+00
  1 29 376 0.00000000E+00
  1 29 377 0.00000000E+00
  1 29 378 0.00000000E+00
  1 29 379 0.00000000E+00
  1 29 380 0.00000000E+00
  1 29 381 0.00000000E+00
  1 29 382 0.00000000E+00
  1 29 383 0.00000000E+00
  1 29 384 0.00000000E+00
  1 29 385 0.00000000E+00
  1 29 386 0.00000000E+00
  1 29 387 0.00000000E+00
  1 30 249 0.00000000E+00
  1 30 250 0.00000000E+00
  1 30 251 0.00000000E+00
  1 30 252 0.00000000E+00
  1 30 365 0.00000000E+00
  1 30 366 0.00000000E+00
  1 30 367 0.00000000E+00
  1 30 368 0.00000000E+00
  1 30 369 0.00000000E+00
  1 30 370 0.00000000E+00
  1 30 371 0.00000000E+00
  1 30 372 0.00000000E+00
  1 30 373 0.00000000E+00
  1 30 374 0.00000000E+00
  1 30 375 0.00000000E+00
  1 30 376 0.00000000E+00
  1 30 377 0.00000000E+00
  1 30 378 0.00000000E+00
  1 30 379 0.00000000E+00
  1 30 380 0.00000000E+00
  1 30 381 0.00000000E+00
  1 30 382 0.00000000E+00
  1 30 383 0.00000000E+00
  1 30 384 0.00000000E+00
  1 30 385 0.00000000E+00
  1 30 386 0.00000000E+00
  1 30 387 0.00000000E+00
  1 30 388 0.00000000E+00
  1 30 389 0.00000000E+00
  1 30 390 0.00000000E+00
  1 31 248 0.00000000E+00
  1 31 249 0.00000000E+00
  1 31 250 0.00000000E+00
  1 31 251 0.00000000E+00
  1 31 252 0.00000000E+00
  1 31 366 0.00000000E+00
  1 31 367 0.00000000E+00
  1 31 368 0.00000000E+00
  1 31 369 0.00000000E+00
  1 31 370 0.00000000E+00
  1 31 371 0.00000000E+00
  1 31 372 0.00000000E+00
  1 31 373 0.00000000E+00
  1 31 374 0.00000000E+00
  1 31 375 0.00000000E+00
  1 31 376 0.00000000E+00
  1 31 377 0.00000000E+00
  1 31 378 0.00000000E+00
  1 31 379 0.00000000E+00
  1 31 380 0.00000000E+00
  1 31 381 0.00000000E+00
  1 31 382 0.00000000E+00
  1 31 383 0.00000000E+00
  1 31 384 0.00000000E+00
  1 31 385 0.00000000E+00
  1 31 386 0.00000000E+00
  1 31 387 0.00000000E+00
  1 31 388 0.00000000E+00
  1 31 389 0.00000000E+00
  1 31 390 0.00000000E+00
  1 31 391 0.00000000E+00
  1 31 392 0.00000000E+00
  1 31 393 0.00000000E+00
  1 31 394 0.00000000E+00
  1 32 247 0.00000000E+00
  1 32 248 0.00000000E+00
  1 32 249 0.00000000E+00
  1 32 250 0.00000000E+00
  1 32 251 0.00000000E+00
  1 32 252 0.00000000E+00
  1 32 368 0.00000000E+00
  1 32 369 0.00000000E+00
  1 32 370 0.00000000E+00
  1 32 371 0.00000000E+00
  1 32 372 0.00000000E+00
  1 32 373 0.00000000E+00
  1 32 374 0.00000000E+00
  1 32 375 0.00000000E+00
  1 32 376 0.00000000E+00
  1 32 377 0.00000000E+00
  1 32 378 0.00000000E+00
  1 32 379 0.00000000E+00
  1 32 380 0.00000000E+00
  1 32 381 0.00000000E+00
  1 32 382 0.00000000E+00
  1 32 383 0.00000000E+00
  1 32 384 0.00000000E+00
  1 32 385 0.00000000E+00
  1 32 386 0.00000000E+00
  1 32 387 0.00000000E+00
  1 32 388 0.00000000E+00
  1 32 389 0.00000000E+00
  1 32 390 0.00000000E+00
  1 32 391 0.00000000E+00
  1 32 392 0.00000000E+00
  1 32 393 0.00000000E+00
  1 32 394 0.00000000E+00
  1 32 395 0.00000000E+00
  1 32 396 0.00000000E+00
  1 32 397 0.00000000E+00
  1 33 246 0.00000000E+00
  1 33 247 0.00000000E+00
  1 33 248 0.00000000E+00
  1 33 249 0.00000000E+00
  1 33 250 0.00000000E+00
  1 33 251 0.00000000E+00
  1 33 252 0.00000000E+00
  1 33 373 0.00000000E+00
  1 33 374 0.00000000E+00
  1 33 375 0.00000000E+00
  1 33 376 0.00000000E+00
  1 33 378 0.00000000E+00
  1 33 379 0.00000000E+00
  1 33 380 0.00000000E+00
  1 33 381 0.00000000E+00
  1 33 382 0.00000000E+00
  1 33 383 0.00000000E+00
  1 33 384 0.00000000E+00
  1 33 385 0.00000000E+00
  1 33 386 0.00000000E+00
  1 33 387 0.00000000E+00
  1 33 388 0.00000000E+00
  1 33 389 0.00000000E+00
  1 33 390 0.00000000E+00
  1 33 391 0.00000000E+00
  1 33 392 0.00000000E+00
  1 33 393 0.00000000E+00
  1 33 394 0.00000000E+00
  1 33 395 0.00000000E+00
  1 33 396 0.00000000E+00
  1 33 397 0.00000000E+00
  1 33 398 0.00000000E+00
  1 33 399 0.00000000E+00
  1 33 400 0.00000000E+00
  1 34 245 0.00000000E+00
  1 34 246 0.00000000E+00
  1 34 247 0.00000000E+00
  1 34 248 0.00000000E+00
  1 34 249 0.00000000E+00
  1 34 250 0.00000000E+00
  1 34 251 0.00000000E+00
  1 34 380 0.00000000E+00
  1 34 381 0.00000000E+00
  1 34 382 0.00000000E+00
  1 34 383 0.00000000E+00
  1 34 384 0.00000000E+00
  1 34 385 0.00000000E+00
  1 34 386 0.00000000E+00
  1 34 387 0.00000000E+00
  1 34 388 0.00000000E+00
  1 34 389 0.00000000E+00
  1 34 390 0.00000000E+00
  1 34 391 0.00000000E+00
  1 34 392 0.00000000E+00
  1 34 393 0.00000000E+00
  1 34 394 0.00000000E+00
  1 34 395 0.00000000E+00
  1 34 396 0.00000000E+00
  1 34 397 0.00000000E+00
  1 34 398 0.00000000E+00
  1 34 399 0.00000000E+00
  1 34 400 0.00000000E+00
  1 35 244 0.00000000E+00
  1 35 245 0.00000000E+00
  1 35 246 0.00000000E+00
  1 35 247 0.00000000E+00
  1 35 248 0.00000000E+00
  1 35 249 0.00000000E+00
  1 35 250 0.00000000E+00
  1 35 251 0.00000000E+00
  1 35 382 0.00000000E+00
  1 35 383 0.00000000E+00
  1 35 384 0.00000000E+00
  1 35 385 0.00000000E+00
  1 35 386 0.00000000E+00
  1 35 387 0.00000000E+00
  1 35 388 0.00000000E+00
  1 35 389 0.00000000E+00
  1 35 390 0.00000000E+00
  1 35 391 0.00000000E+00
  1 35 392 0.00000000E+00
  1 35 393 0.00000000E+00
  1 35 400 0.00000000E+00
  1 36 243 0.00000000E+00
  1 36 244 0.00000000E+00
  1 36 245 0.00000000E+00
  1 36 246 0.00000000E+00
  1 36 247 0.00000000E+00
  1 36 248 0.00000000E+00
  1 36 249 0.00000000E+00
  1 36 250 0.00000000E+00
  1 36 386 0.00000000E+00
  1 36 387 0.00000000E+00
  1 36 388 0.00000000E+00
  1 36 389 0.00000000E+00
  1 36 390 0.00000000E+00
  1 37 242 0.00000000E+00
  1 37 243 0.00000000E+00
  1 37 244 0.00000000E+00
  1 37 245 0.00000000E+00
  1 37 246 0.00000000E+00
  1 37 247 0.00000000E+00
  1 37 248 0.00000000E+00
  1 37 249 0.00000000E+00
  1 37 250 0.00000000E+00
  1 38 242 0.00000000E+00
  1 38 243 0.00000000E+00
  1 38 244 0.00000000E+00
  1 38 245 0.00000000E+00
  1 38 246 0.00000000E+00
  1 38 247 0.00000000E+00
  1 38 248 0.00000000E+00
  1 38 249 0.00000000E+00
  1 39 240 0.00000000E+00
  1 39 241 0.00000000E+00
  1 39 242 0.00000000E+00
  1 39 243 0.00000000E+00
  1 39 244 0.00000000E+00
  1 40 239 0.00000000E+00
  1 40 240 0.00000000E+00
  1 40 241 0.00000000E+00
  1 40 242 0.00000000E+00
  1 40 243 0.00000000E+00
  1 41 237 0.00000000E+00
  1 41 238 0.00000000E+00
  1 41 239 0.00000000E+00
  1 41 240 0.00000000E+00
  1 41 241 0.00000000E+00
  1 41 242 0.00000000E+00
  1 42 236 0.00000000E+00
  1 42 237 0.00000000E+00
  1 42 238 0.00000000E+00
  1 42 239 0.00000000E+00
  1 42 240 0.00000000E+00
  1 42 241 0.00000000E+00
  1 43 233 0.00000000E+00
  1 43 234 0.00000000E+00
  1 43 235 0.00000000E+00
  1 43 236 0.00000000E+00
  1 43 237 0.00000000E+00
  1 43 238 0.00000000E+00
  1 43 239 0.00000000E+00
  1 43 240 0.00000000E+00
  1 43 241 0.00000000E+00
  1 44 228 0.00000000E+00
  1 44 229 0.00000000E+00
  1 44 230 0.00000000E+00
  1 44 231 0.00000000E+00
  1 44 232 0.00000000E+00
  1 44 233 0.00000000E+00
  1 44 234 0.00000000E+00
  1 44 235 0.00000000E+00
  1 44 236 0.00000000E+00
  1 44 237 0.00000000E+00
  1 44 238 0.00000000E+00
  1 44 239 0.00000000E+00
  1 44 240 0.00000000E+00
  1 45 227 0.00000000E+00
  1 45 228 0.00000000E+00
  1 45 229 0.00000000E+00
  1 45 230 0.00000000E+00
  1 45 231 0.00000000E+00
  1 45 232 0.00000000E+00
  1 45 233 0.00000000E+00
  1 45 234 0.00000000E+00
  1 45 235 0.00000000E+00
  1 45 236 0.00000000E+00
  1 45 237 0.00000000E+00
  1 45 238 0.00000000E+00
  1 46 225 0.00000000E+00
  1 46 226 0.00000000E+00
  1 46 227 0.00000000E+00
  1 46 228 0.00000000E+00
  1 46 229 0.00000000E+00
  1 46 230 0.00000000E+00
  1 46 231 0.00000000E+00
  1 46 232 0.00000000E+00
  1 46 233 0.00000000E+00
  1 46 234 0.00000000E+00
  1 46 235 0.00000000E+00
  1 46 236 0.00000000E+00
  1 46 237 0.00000000E+00
  1 47 224 0.00000000E+00
  1 47 225 0.00000000E+00
  1 47 226 0.00000000E+00
  1 47 227 0.00000000E+00
  1 47 228 0.00000000E+00
  1 47 229 0.00000000E+00
  1 47 230 0.00000000E+00
  1 47 231 0.00000000E+00
  1 47 232 0.00000000E+00
  1 47 233 0.00000000E+00
  1 48 222 0.00000000E+00
  1 48 223 0.00000000E+00
  1 48 224 0.00000000E+00
  1 48 225 0.00000000E+00
  1 48 226 0.00000000E+00
  1 48 227 0.00000000E+00
  1 49 214 0.00000000E+00
  1 49 215 0.00000000E+00
  1 49 216 0.00000000E+00
  1 49 217 0.00000000E+00
  1 49 218 0.00000000E+00
  1 49 219 0.00000000E+00
  1 49 220 0.00000000E+00
  1 49 221 0.00000000E+00
  1 49 222 0.00000000E+00
  1 49 223 0.00000000E+00
  1 49 224 0.00000000E+00
  1 50 211 0.00000000E+00
  1 50 212 0.00000000E+00
  1 50 213 0.00000000E+00
  1 50 214 0.00000000E+00
  1 50 215 0.00000000E+00
  1 50 216 0.00000000E+00
  1 50 217 0.00000000E+00
  1 50 218 0.00000000E+00
  1 50 219 0.00000000E+00
  1 50 220 0.00000000E+00
  1 50 221 0.00000000E+00
  1 50 222 0.00000000E+00
  1 51 204 0.00000000E+00
  1 51 205 0.00000000E+00
  1 51 206 0.00000000E+00
  1 51 207 0.00000000E+00
  1 51 208 0.00000000E+00
  1 51 209 0.00000000E+00
  1 51 210 0.00000000E+00
  1 51 211 0.00000000E+00
  1 51 212 0.00000000E+00
  1 51 213 0.00000000E+00
  1 51 214 0.00000000E+00
  1 51 215 0.00000000E+00
  1 51 216 0.00000000E+00
  1 51 217 0.00000000E+00
  1 51 218 0.00000000E+00
  1 51 219 0.00000000E+00
  1 51 220 0.00000000E+00
  1 51 221 0.00000000E+00
  1 52 199 0.00000000E+00
  1 52 200 0.00000000E+00
  1 52 201 0.00000000E+00
  1 52 202 0.00000000E+00
  1 52 203 0.00000000E+00
  1 52 204 0.00000000E+00
  1 52 205 0.00000000E+00
  1 52 206 0.00000000E+00
  1 52 207 0.00000000E+00
  1 52 208 0.00000000E+00
  1 52 209 0.00000000E+00
  1 52 210 0.00000000E+00
  1 52 211 0.00000000E+00
  1 52 212 0.00000000E+00
  1 52 215 0.00000000E+00
  1 53 192 0.00000000E+00
  1 53 193 0.00000000E+00
  1 53 194 0.00000000E+00
  1 53 195 0.00000000E+00
  1 53 196 0.00000000E+00
  1 53 197 0.00000000E+00
  1 53 198 0.00000000E+00
  1 53 199 0.00000000E+00
  1 53 200 0.00000000E+00
  1 53 201 0.00000000E+00
  1 53 202 0.00000000E+00
  1 53 203 0.00000000E+00
  1 53 204 0.00000000E+00
  1 53 205 0.00000000E+00
  1 53 206 0.00000000E+00
  1 53 207 0.00000000E+00
  1 53 208 0.00000000E+00
  1 53 209 0.00000000E+00
  1 54 189 0.00000000E+00
  1 54 190 0.00000000E+00
  1 54 191 0.00000000E+00
  1 54 192 0.00000000E+00
  1 54 193 0.00000000E+00
  1 54 194 0.00000000E+00
  1 54 195 0.00000000E+00
  1 54 196 0.00000000E+00
  1 54 197 0.00000000E+00
  1 54 198 0.00000000E+00
  1 54 199 0.00000000E+00
  1 54 200 0.00000000E+00
  1 54 201 0.00000000E+00
  1 54 202 0.00000000E+00
  1 54 203 0.00000000E+00
  1 54 204 0.00000000E+00
  1 54 205 0.00000000E+00
  1 54 206 0.00000000E+00
  1 54 207 0.00000000E+00
  1 54 208 0.00000000E+00
  1 55 185 0.00000000E+00
  1 55 186 0.00000000E+00
  1 55 187 0.00000000E+00
  1 55 188 0.00000000E+00
  1 55 189 0.00000000E+00
  1 55 190 0.00000000E+00
  1 55 191 0.00000000E+00
  1 55 192 0.00000000E+00
  1 55 193 0.00000000E+00
  1 55 194 0.00000000E+00
  1 55 195 0.00000000E+00
  1 55 196 0.00000000E+00
  1 55 197 0.00000000E+00
  1 55 198 0.00000000E+00
  1 55 199 0.00000000E+00
  1 55 200 0.00000000E+00
  1 55 201 0.00000000E+00
  1 55 202 0.00000000E+00
  1 55 203 0.00000000E+00
  1 55 204 0.00000000E+00
  1 55 205 0.00000000E+00
  1 55 206 0.00000000E+00
  1 56 106 0.00000000E+00
  1 56 107 0.00000000E+00
  1 56 173 0.00000000E+00
  1 56 174 0.00000000E+00
  1 56 175 0.00000000E+00
  1 56 176 0.00000000E+00
  1 56 177 0.00000000E+00
  1 56 178 0.00000000E+00
  1 56 179 0.00000000E+00
  1 56 180 0.00000000E+00
  1 56 181 0.00000000E+00
  1 56 182 0.00000000E+00
  1 56 183 0.00000000E+00
  1 56 184 0.00000000E+00
  1 56 185 0.00000000E+00
  1 56 186 0.00000000E+00
  1 56 187 0.00000000E+00
  1 56 188 0.00000000E+00
  1 56 189 0.00000000E+00
  1 56 190 0.00000000E+00
  1 56 191 0.00000000E+00
  1 56 192 0.00000000E+00
  1 56 193 0.00000000E+00