# File generated by Flopy version 3.9.1 on 01/21/2026 at 07:07:05.
BEGIN options
  FIXED_CELL
  PRINT_FLOWS
  SAVE_FLOWS
END options

BEGIN dimensions
  MAXBOUND  18550
END dimensions

BEGIN period  1
  1 1.14457202E-08
  2 1.14131530E-08
  3 1.12380905E-08
  4 1.14255761E-08
  5 1.15416648E-08
  6 1.12153406E-08
  7 1.13479010E-08
  8 1.17775923E-08
  9 1.16152064E-08
  10 1.19804746E-08
  11 1.24885427E-08
  12 1.29564014E-08
  13 1.34142229E-08
  14 1.38424117E-08
  15 1.42301767E-08
  16 1.45729870E-08
  17 1.48432313E-08
  18 1.50961474E-08
  19 1.25597171E-08
  20 1.20476230E-08
  21 1.16212130E-08
  22 1.20640006E-08
  23 1.16068177E-08
  24 1.12863625E-08
  25 1.10906261E-08
  26 1.12436684E-08
  27 1.10297232E-08
  28 1.10652972E-08
  29 1.12140120E-08
  30 1.10020331E-08
  31 1.11649347E-08
  32 1.15115646E-08
  33 1.19136817E-08
  34 1.14884774E-08
  35 1.19728773E-08
  36 1.24528764E-08
  37 1.29528142E-08
  38 1.24867923E-08
  39 1.30090409E-08
  40 1.34352315E-08
  41 1.38805292E-08
  42 1.35063212E-08
  43 1.39597294E-08
  44 1.42789795E-08
  45 1.46019680E-08
  46 1.43609852E-08
  47 1.46838216E-08
  48 1.49005484E-08
  49 1.51526639E-08
  50 1.49788550E-08
  51 1.52258009E-08
  52 1.53616116E-08
  53 1.55307571E-08
  54 1.54285672E-08
  55 1.55908722E-08
  56 1.57159797E-08
  57 1.58066491E-08
  58 1.55784084E-08
  59 1.55105786E-08
  60 1.54633827E-08
  61 1.53917420E-08
  62 1.52906511E-08
  63 1.41956226E-08
  64 1.38087804E-08
  65 1.31750018E-08
  66 1.26776432E-08
  67 1.33654106E-08
  68 1.28775023E-08
  69 1.21681380E-08
  70 1.16921424E-08
  71 1.23717663E-08
  72 1.18937235E-08
  73 1.13097749E-08
  74 1.10826799E-08
  75 1.15056600E-08
  76 1.12733327E-08
  77 1.10531202E-08
  78 1.12261315E-08
  79 1.12427369E-08
  80 1.14195025E-08
  81 1.15675150E-08
  82 1.20737420E-08
  83 1.18047813E-08
  84 1.22830785E-08
  85 1.26026626E-08
  86 1.31334172E-08
  87 1.28089057E-08
  88 1.33308673E-08
  89 1.36327520E-08
  90 1.40831059E-08
  91 1.38170098E-08
  92 1.42515964E-08
  93 1.44778531E-08
  94 1.47928540E-08
  95 1.46070503E-08
  96 1.49286459E-08
  97 1.50783796E-08
  98 1.53154941E-08
  99 1.51984987E-08
  100 1.54210766E-08
  101 1.55084721E-08
  102 1.56611720E-08
  103 1.56007089E-08
  104 1.57411415E-08
  105 1.57768370E-08
  106 1.58580951E-08
  107 1.58453999E-08
  108 1.59158276E-08
  109 1.59070818E-08
  110 1.59256515E-08
  111 1.59542323E-08
  112 1.59621199E-08
  113 1.59410085E-08
  114 1.58928192E-08
  115 1.54878425E-08
  116 1.55106843E-08
  117 1.55655313E-08
  118 1.55264617E-08
  119 1.55461484E-08
  120 1.55813781E-08
  121 1.55952452E-08
  122 1.55687400E-08
  123 1.55918675E-08
  124 1.56038890E-08
  125 1.56032784E-08
  126 1.56120155E-08
  127 1.56248376E-08
  128 1.55888440E-08
  129 1.55176975E-08
  130 1.56254961E-08
  131 1.55722740E-08
  132 1.54615873E-08
  133 1.53772877E-08
  134 1.55338740E-08
  135 1.54689661E-08
  136 1.52597951E-08
  137 1.51039755E-08
  138 1.53729346E-08
  139 1.52411874E-08
  140 1.49045593E-08
  141 1.46949339E-08
  142 1.50690927E-08
  143 1.48911031E-08
  144 1.43939350E-08
  145 1.40355613E-08
  146 1.46259066E-08
  147 1.43078999E-08
  148 1.36213206E-08
  149 1.31613284E-08
  150 1.39379794E-08
  151 1.35245286E-08
  152 1.26798859E-08
  153 1.22202817E-08
  154 1.30887422E-08
  155 1.26696139E-08
  156 1.18437536E-08
  157 1.16166374E-08
  158 1.23237457E-08
  159 1.21137392E-08
  160 1.15861934E-08
  161 1.17584096E-08
  162 1.20849041E-08
  163 1.22960714E-08
  164 1.21463184E-08
  165 1.26063313E-08
  166 1.26194741E-08
  167 1.30391303E-08
  168 1.31078361E-08
  169 1.36015514E-08
  170 1.34942313E-08
  171 1.39400933E-08
  172 1.40580083E-08
  173 1.44635378E-08
  174 1.43507224E-08
  175 1.46934879E-08
  176 1.47922913E-08
  177 1.50894766E-08
  178 1.50068062E-08
  179 1.52723372E-08
  180 1.53376840E-08
  181 1.55412602E-08
  182 1.54935321E-08
  183 1.56741657E-08
  184 1.57042399E-08
  185 1.58299895E-08
  186 1.58176328E-08
  187 1.59266666E-08
  188 1.59211177E-08
  189 1.59795348E-08
  190 1.60032772E-08
  191 1.60488131E-08
  192 1.60066093E-08
  193 1.60034088E-08
  194 1.60641103E-08
  195 1.60497271E-08
  196 1.59710311E-08
  197 1.59110298E-08
  198 1.60062813E-08
  199 1.59349003E-08
  200 1.58259165E-08
  201 1.58377744E-08
  202 1.57187491E-08
  203 1.55838200E-08
  204 1.54432474E-08
  205 1.49396518E-08
  206 1.48894530E-08
  207 1.49569734E-08
  208 1.54272677E-08
  209 1.54454039E-08
  210 1.54162639E-08
  211 1.54271701E-08
  212 1.54548463E-08
  213 1.54608869E-08
  214 1.54289570E-08
  215 1.54278223E-08
  216 1.54674862E-08
  217 1.54779800E-08
  218 1.54289476E-08
  219 1.54365012E-08
  220 1.54947080E-08
  221 1.55184300E-08
  222 1.54535427E-08
  223 1.54812216E-08
  224 1.55481903E-08
  225 1.55814190E-08
  226 1.55186065E-08
  227 1.55628373E-08
  228 1.56142409E-08
  229 1.56419086E-08
  230 1.56095560E-08
  231 1.56534947E-08
  232 1.56592580E-08
  233 1.56257808E-08
  234 1.56890773E-08
  235 1.56770115E-08
  236 1.56070761E-08
  237 1.55638600E-08
  238 1.56797393E-08
  239 1.56601360E-08
  240 1.54920657E-08
  241 1.53878741E-08
  242 1.56148125E-08
  243 1.55409065E-08
  244 1.52476025E-08
  245 1.51071407E-08
  246 1.54359333E-08
  247 1.53374572E-08
  248 1.48855652E-08
  249 1.46182498E-08
  250 1.51654548E-08
  251 1.49567247E-08
  252 1.43060405E-08
  253 1.39558742E-08
  254 1.47125571E-08
  255 1.44387557E-08
  256 1.35853873E-08
  257 1.32274929E-08
  258 1.41491522E-08
  259 1.38692381E-08
  260 1.29307200E-08
  261 1.27495248E-08
  262 1.36366757E-08
  263 1.34940209E-08
  264 1.27238244E-08
  265 1.29313227E-08
  266 1.35584979E-08
  267 1.36678028E-08
  268 1.32079797E-08
  269 1.35666533E-08
  270 1.38838538E-08
  271 1.41651935E-08
  272 1.39551830E-08
  273 1.43356965E-08
  274 1.44714364E-08
  275 1.47732047E-08
  276 1.46864035E-08
  277 1.49767106E-08
  278 1.50533737E-08
  279 1.52831436E-08
  280 1.52452186E-08
  281 1.54730807E-08
  282 1.55008510E-08
  283 1.56866911E-08
  284 1.56628757E-08
  285 1.58174005E-08
  286 1.58419623E-08
  287 1.59681741E-08
  288 1.59391107E-08
  289 1.60298939E-08
  290 1.60666225E-08
  291 1.61382001E-08
  292 1.60910155E-08
  293 1.61231638E-08
  294 1.61833309E-08
  295 1.62019843E-08
  296 1.61265768E-08
  297 1.61012584E-08
  298 1.61937677E-08
  299 1.61581139E-08
  300 1.60473094E-08
  301 1.59653926E-08
  302 1.60945968E-08
  303 1.60034010E-08
  304 1.58573285E-08
  305 1.57267583E-08
  306 1.58859481E-08
  307 1.57456189E-08
  308 1.55815141E-08
  309 1.54272205E-08
  310 1.55907289E-08
  311 1.54259585E-08
  312 1.52756984E-08
  313 1.51392319E-08
  314 1.52643173E-08
  315 1.51188845E-08
  316 1.50022900E-08
  317 1.49244747E-08
  318 1.48909477E-08
  319 1.49021611E-08
  320 1.48222267E-08
  321 1.47318603E-08
  322 1.48465120E-08
  323 1.49101608E-08
  324 1.53866465E-08
  325 1.49329725E-08
  326 1.53837336E-08
  327 1.54044782E-08
  328 1.54062686E-08
  329 1.53921863E-08
  330 1.53828685E-08
  331 1.53984105E-08
  332 1.53881744E-08
  333 1.53632465E-08
  334 1.53414597E-08
  335 1.53821180E-08
  336 1.53854526E-08
  337 1.53267580E-08
  338 1.53245061E-08
  339 1.54021027E-08
  340 1.54336650E-08
  341 1.53400351E-08
  342 1.53754471E-08
  343 1.54791894E-08
  344 1.55354021E-08
  345 1.54297076E-08
  346 1.54989651E-08
  347 1.55972991E-08
  348 1.56589370E-08
  349 1.55773651E-08
  350 1.56580991E-08
  351 1.57142149E-08
  352 1.57250266E-08
  353 1.57344076E-08
  354 1.57693020E-08
  355 1.57506261E-08
  356 1.57561138E-08
  357 1.58188593E-08
  358 1.58504177E-08
  359 1.57388679E-08
  360 1.56971110E-08
  361 1.58621746E-08
  362 1.58535044E-08
  363 1.56202765E-08
  364 1.55760359E-08
  365 1.58153022E-08
  366 1.58169137E-08
  367 1.54573463E-08
  368 1.53121447E-08
  369 1.57529587E-08
  370 1.56731272E-08
  371 1.51425092E-08
  372 1.49533571E-08
  373 1.55804493E-08
  374 1.54790968E-08
  375 1.47546163E-08
  376 1.45635365E-08
  377 1.53751030E-08
  378 1.52771770E-08
  379 1.44050892E-08
  380 1.43073933E-08
  381 1.51968417E-08
  382 1.51466740E-08
  383 1.43924610E-08
  384 1.44650651E-08
  385 1.52462503E-08
  386 1.52802937E-08
  387 1.46117427E-08
  388 1.48055629E-08
  389 1.53544404E-08
  390 1.54572624E-08
  391 1.50198986E-08
  392 1.52348679E-08
  393 1.55766011E-08
  394 1.57023635E-08
  395 1.54182879E-08
  396 1.56027847E-08
  397 1.58074052E-08
  398 1.59253576E-08
  399 1.57662542E-08
  400 1.59076290E-08
  401 1.60337805E-08
  402 1.61301996E-08
  403 1.60266753E-08
  404 1.61234345E-08
  405 1.62127674E-08
  406 1.62800124E-08
  407 1.61979222E-08
  408 1.62499616E-08
  409 1.63306522E-08
  410 1.63634425E-08
  411 1.62790945E-08
  412 1.62845560E-08
  413 1.63770589E-08
  414 1.63700286E-08
  415 1.62653247E-08
  416 1.62202757E-08
  417 1.63407356E-08
  418 1.62875377E-08
  419 1.61484733E-08
  420 1.60496358E-08
  421 1.62090312E-08
  422 1.61045032E-08
  423 1.59247787E-08
  424 1.57790763E-08
  425 1.59745772E-08
  426 1.58247943E-08
  427 1.56149885E-08
  428 1.54423324E-08
  429 1.56559418E-08
  430 1.54785010E-08
  431 1.52730276E-08
  432 1.51207199E-08
  433 1.53044980E-08
  434 1.51478519E-08
  435 1.49986769E-08
  436 1.49173526E-08
  437 1.50221893E-08
  438 1.49382833E-08
  439 1.48824784E-08
  440 1.48943810E-08
  441 1.49020288E-08
  442 1.49137094E-08
  443 1.49486645E-08
  444 1.50378073E-08
  445 1.49687112E-08
  446 1.50592024E-08
  447 1.51529823E-08
  448 1.51760410E-08
  449 1.53103274E-08
  450 1.54543597E-08
  451 1.56020295E-08
  452 1.46113118E-08
  453 1.44530030E-08
  454 1.46424844E-08
  455 1.47596276E-08
  456 1.48743748E-08
  457 1.47927554E-08
  458 1.49062531E-08
  459 1.49580987E-08
  460 1.53826449E-08
  461 1.49858686E-08
  462 1.53842193E-08
  463 1.53799511E-08
  464 1.53575271E-08
  465 1.53687395E-08
  466 1.53313578E-08
  467 1.53239999E-08
  468 1.52890009E-08
  469 1.52819272E-08
  470 1.52317339E-08
  471 1.52633248E-08
  472 1.52541115E-08
  473 1.51933210E-08
  474 1.51758892E-08
  475 1.52678271E-08
  476 1.53071317E-08
  477 1.51872171E-08
  478 1.52305601E-08
  479 1.53708113E-08
  480 1.54542323E-08
  481 1.53043975E-08
  482 1.54030737E-08
  483 1.55504462E-08
  484 1.56515670E-08
  485 1.55182805E-08
  486 1.56408371E-08
  487 1.57500316E-08
  488 1.58098665E-08
  489 1.57622418E-08
  490 1.59029799E-08
  491 1.58840465E-08
  492 1.59421038E-08
  493 1.59463658E-08
  494 1.60307411E-08
  495 1.59830706E-08
  496 1.59963338E-08
  497 1.60879498E-08
  498 1.61459456E-08
  499 1.60076467E-08
  500 1.60545756E-08
  501 1.61940314E-08
  502 1.62842206E-08
  503 1.60445544E-08
  504 1.60289926E-08
  505 1.63253366E-08
  506 1.63703603E-08
  507 1.60118779E-08
  508 1.59966865E-08
  509 1.64241299E-08
  510 1.64894301E-08
  511 1.59856684E-08
  512 1.59791664E-08
  513 1.65649551E-08
  514 1.66432603E-08
  515 1.59754673E-08
  516 1.60854378E-08
  517 1.67103769E-08
  518 1.68571177E-08
  519 1.60779854E-08
  520 1.60743021E-08
  521 1.68537383E-08
  522 1.68152379E-08
  523 1.60778025E-08
  524 1.60921850E-08
  525 1.67538497E-08
  526 1.66870273E-08
  527 1.61193332E-08
  528 1.61400302E-08
  529 1.66294184E-08
  530 1.65709388E-08
  531 1.61877422E-08
  532 1.62411137E-08
  533 1.65480369E-08
  534 1.65414421E-08
  535 1.62961084E-08
  536 1.63488932E-08
  537 1.65466569E-08
  538 1.65586628E-08
  539 1.63960777E-08
  540 1.64347549E-08
  541 1.65727135E-08
  542 1.65846399E-08
  543 1.64624201E-08
  544 1.64768323E-08
  545 1.65908658E-08
  546 1.65882795E-08
  547 1.64758673E-08
  548 1.64574064E-08
  549 1.65740622E-08
  550 1.65455397E-08
  551 1.64193010E-08
  552 1.63594526E-08
  553 1.65001109E-08
  554 1.64352957E-08
  555 1.62760501E-08
  556 1.61680015E-08
  557 1.63489460E-08
  558 1.62412880E-08
  559 1.60379316E-08
  560 1.58847119E-08
  561 1.61105452E-08
  562 1.59585152E-08
  563 1.57143767E-08
  564 1.55355742E-08
  565 1.57900522E-08
  566 1.56133928E-08
  567 1.53601682E-08
  568 1.52020182E-08
  569 1.54399728E-08
  570 1.52832540E-08
  571 1.50747845E-08
  572 1.49893285E-08
  573 1.51565916E-08
  574 1.50706893E-08
  575 1.49516363E-08
  576 1.49620457E-08
  577 1.50315418E-08
  578 1.50396368E-08
  579 1.50159468E-08
  580 1.51054728E-08
  581 1.50905969E-08
  582 1.51768062E-08
  583 1.52214298E-08
  584 1.53548679E-08
  585 1.52892916E-08
  586 1.54192712E-08
  587 1.54980478E-08
  588 1.56448384E-08
  589 1.55591160E-08
  590 1.57027580E-08
  591 1.57907213E-08
  592 1.59325834E-08
  593 1.58457065E-08
  594 1.59848529E-08
  595 1.40113228E-08
  596 1.43049332E-08
  597 1.44879583E-08
  598 1.46813408E-08
  599 1.45338054E-08
  600 1.47289776E-08
  601 1.48319663E-08
  602 1.49427175E-08
  603 1.48781168E-08
  604 1.49845242E-08
  605 1.53863150E-08
  606 1.53896527E-08
  607 1.54091565E-08
  608 1.54005647E-08
  609 1.53600441E-08
  610 1.53062059E-08
  611 1.53559810E-08
  612 1.52847932E-08
  613 1.52392500E-08
  614 1.51722498E-08
  615 1.51993592E-08
  616 1.51146136E-08
  617 1.51189810E-08
  618 1.50930613E-08
  619 1.50466081E-08
  620 1.50108198E-08
  621 1.51016384E-08
  622 1.51492687E-08
  623 1.50165840E-08
  624 1.50688098E-08
  625 1.52339688E-08
  626 1.53488056E-08
  627 1.51648781E-08
  628 1.52963468E-08
  629 1.54838533E-08
  630 1.56284483E-08
  631 1.54514739E-08
  632 1.56179970E-08
  633 1.57978245E-08
  634 1.59375460E-08
  635 1.58098395E-08
  636 1.59728101E-08
  637 1.60645518E-08
  638 1.61164371E-08
  639 1.61232903E-08
  640 1.61871036E-08
  641 1.62013633E-08
  642 1.62894634E-08
  643 1.63103486E-08
  644 1.64258998E-08
  645 1.63718325E-08
  646 1.64541030E-08
  647 1.65390986E-08
  648 1.66567213E-08
  649 1.65896504E-08
  650 1.66894332E-08
  651 1.68330419E-08
  652 1.69800647E-08
  653 1.68067641E-08
  654 1.69437404E-08
  655 1.71516094E-08
  656 1.73491189E-08
  657 1.70958582E-08
  658 1.72487955E-08
  659 1.75653764E-08
  660 1.77803540E-08
  661 1.74811801E-08
  662 1.75489153E-08
  663 1.80474304E-08
  664 1.81441546E-08
  665 1.75486744E-08
  666 1.74797154E-08
  667 1.81461712E-08
  668 1.80520975E-08
  669 1.73618265E-08
  670 1.72242262E-08
  671 1.78877466E-08
  672 1.76917657E-08
  673 1.70925050E-08
  674 1.69646095E-08
  675 1.74838327E-08
  676 1.73127750E-08
  677 1.68792300E-08
  678 1.68192473E-08
  679 1.71746248E-08
  680 1.70691104E-08
  681 1.67798613E-08
  682 1.67551192E-08
  683 1.69913135E-08
  684 1.69346432E-08
  685 1.67391836E-08
  686 1.67268640E-08
  687 1.68924822E-08
  688 1.68588998E-08
  689 1.67137151E-08
  690 1.66959199E-08
  691 1.68288173E-08
  692 1.67978996E-08
  693 1.66700969E-08
  694 1.66331235E-08
  695 1.67623483E-08
  696 1.67187048E-08
  697 1.65820352E-08
  698 1.65140496E-08
  699 1.66637308E-08
  700 1.65944159E-08
  701 1.64267536E-08
  702 1.63209798E-08
  703 1.65097308E-08
  704 1.64064489E-08
  705 1.61929683E-08
  706 1.60450542E-08
  707 1.62835720E-08
  708 1.61424216E-08
  709 1.58816646E-08
  710 1.57104837E-08
  711 1.59869586E-08
  712 1.58242047E-08
  713 1.55422820E-08
  714 1.53898153E-08
  715 1.56640771E-08
  716 1.55183788E-08
  717 1.52658200E-08
  718 1.51806065E-08
  719 1.53989699E-08
  720 1.53155677E-08
  721 1.51400906E-08
  722 1.51449865E-08
  723 1.52739218E-08
  724 1.52750187E-08
  725 1.51913532E-08
  726 1.52720888E-08
  727 1.53155080E-08
  728 1.53890119E-08
  729 1.53786973E-08
  730 1.55027721E-08
  731 1.54877267E-08
  732 1.56038024E-08
  733 1.56369397E-08
  734 1.57752803E-08
  735 1.57302532E-08
  736 1.58613906E-08
  737 1.59133702E-08
  738 1.60481136E-08
  739 1.59929013E-08
  740 1.61217168E-08
  741 1.15377833E-08
  742 1.22031887E-08
  743 1.27966336E-08
  744 1.32633256E-08
  745 1.36970723E-08
  746 1.33104776E-08
  747 1.37583635E-08
  748 1.40600630E-08
  749 1.43609395E-08
  750 1.41308069E-08
  751 1.44346341E-08
  752 1.45921192E-08
  753 1.47865972E-08
  754 1.46644934E-08
  755 1.48554930E-08
  756 1.49322246E-08
  757 1.50326639E-08
  758 1.49954796E-08
  759 1.50883904E-08
  760 1.54399123E-08
  761 1.54190236E-08
  762 1.54804163E-08
  763 1.54474986E-08
  764 1.53593225E-08
  765 1.52707666E-08
  766 1.53734154E-08
  767 1.52685770E-08
  768 1.51668905E-08
  769 1.50644718E-08
  770 1.51475620E-08
  771 1.50288471E-08
  772 1.49818655E-08
  773 1.49364598E-08
  774 1.49329391E-08
  775 1.48788986E-08
  776 1.49397111E-08
  777 1.49967955E-08
  778 1.48804598E-08
  779 1.49424621E-08
  780 1.51042987E-08
  781 1.52521220E-08
  782 1.50607545E-08
  783 1.52235883E-08
  784 1.54266307E-08
  785 1.56346645E-08
  786 1.54314147E-08
  787 1.56420886E-08
  788 1.58270340E-08
  789 1.60114324E-08
  790 1.58533346E-08
  791 1.60563219E-08
  792 1.61832765E-08
  793 1.62695883E-08
  794 1.62465517E-08
  795 1.64233304E-08
  796 1.64151729E-08
  797 1.65547711E-08
  798 1.65164214E-08
  799 1.66760296E-08
  800 1.66945268E-08
  801 1.68420668E-08
  802 1.68374266E-08
  803 1.70087575E-08
  804 1.70522547E-08
  805 1.72377362E-08
  806 1.72452312E-08
  807 1.74595574E-08
  808 1.74526814E-08
  809 1.76979420E-08
  810 1.77061485E-08
  811 1.79853426E-08
  812 1.79641774E-08
  813 1.83135697E-08
  814 1.82863261E-08
  815 1.86518982E-08
  816 1.85142161E-08
  817 1.86325708E-08
  818 1.88765002E-08
  819 1.90090212E-08
  820 1.86361592E-08
  821 1.85230127E-08
  822 1.90137247E-08
  823 1.88880377E-08
  824 1.83232525E-08
  825 1.80824169E-08
  826 1.86645220E-08
  827 1.83831414E-08
  828 1.78277471E-08
  829 1.76101983E-08
  830 1.81055673E-08
  831 1.78543294E-08
  832 1.74298118E-08
  833 1.72872867E-08
  834 1.76424722E-08
  835 1.74716026E-08
  836 1.71777926E-08
  837 1.70944241E-08
  838 1.73372146E-08
  839 1.72324382E-08
  840 1.70301233E-08
  841 1.69785239E-08
  842 1.71501332E-08
  843 1.70838148E-08
  844 1.69341651E-08
  845 1.68923898E-08
  846 1.70278961E-08
  847 1.69775921E-08
  848 1.68491300E-08
  849 1.68006988E-08
  850 1.69287034E-08
  851 1.68774090E-08
  852 1.67436641E-08
  853 1.66748488E-08
  854 1.68201448E-08
  855 1.67550858E-08
  856 1.65939810E-08
  857 1.64958767E-08
  858 1.66783344E-08
  859 1.65871757E-08
  860 1.63802525E-08
  861 1.62481236E-08
  862 1.64805947E-08
  863 1.63593065E-08
  864 1.61029597E-08
  865 1.59510467E-08
  866 1.62262780E-08
  867 1.60870242E-08
  868 1.58013225E-08
  869 1.56644697E-08
  870 1.59494430E-08
  871 1.58230135E-08
  872 1.55512932E-08
  873 1.54707692E-08
  874 1.57173909E-08
  875 1.56407210E-08
  876 1.54284021E-08
  877 1.54254601E-08
  878 1.55981990E-08
  879 1.55913507E-08
  880 1.54592722E-08
  881 1.55243255E-08
  882 1.56182081E-08
  883 1.56741875E-08
  884 1.56136640E-08
  885 1.57201365E-08
  886 1.57532698E-08
  887 1.58490980E-08
  888 1.58372570E-08
  889 1.59596462E-08
  890 1.59557717E-08
  891 1.60682890E-08
  892 1.60831478E-08
  893 1.62047432E-08
  894 1.61826987E-08
  895 1.62960627E-08
  896 8.24319330E-09
  897 8.18332080E-09
  898 8.52319052E-09
  899 9.17791806E-09
  900 9.97829872E-09
  901 1.08158702E-08
  902 1.16108773E-08
  903 1.08518993E-08
  904 1.16909740E-08
  905 1.23289784E-08
  906 1.29684108E-08
  907 1.24469791E-08
  908 1.30899898E-08
  909 1.33962002E-08
  910 1.38521608E-08
  911 1.36414800E-08
  912 1.39800500E-08
  913 1.42215416E-08
  914 1.45279889E-08
  915 1.43438796E-08
  916 1.46343015E-08
  917 1.47524619E-08
  918 1.49370093E-08
  919 1.48573950E-08
  920 1.50324686E-08
  921 1.50692259E-08
  922 1.55268869E-08
  923 1.51549003E-08
  924 1.54337362E-08
  925 1.55326917E-08
  926 1.54887152E-08
  927 1.55987967E-08
  928 1.55454093E-08
  929 1.54019480E-08
  930 1.52831303E-08
  931 1.54485660E-08
  932 1.53192134E-08
  933 1.51476861E-08
  934 1.50154997E-08
  935 1.51733599E-08
  936 1.50318578E-08
  937 1.49088564E-08
  938 1.48485056E-08
  939 1.49181717E-08
  940 1.48540940E-08
  941 1.48490265E-08
  942 1.49156216E-08
  943 1.48547445E-08
  944 1.49250876E-08
  945 1.50431216E-08
  946 1.52183470E-08
  947 1.50592122E-08
  948 1.52544439E-08
  949 1.54405674E-08
  950 1.56662931E-08
  951 1.54756681E-08
  952 1.57114454E-08
  953 1.58925409E-08
  954 1.61102864E-08
  955 1.59477982E-08
  956 1.61756588E-08
  957 1.63151208E-08
  958 1.65065795E-08
  959 1.63906918E-08
  960 1.65925230E-08
  961 1.66148790E-08
  962 1.67899931E-08
  963 1.67114202E-08
  964 1.68972830E-08
  965 1.69676910E-08
  966 1.71562799E-08
  967 1.70857769E-08
  968 1.72850110E-08
  969 1.74111507E-08
  970 1.76443349E-08
  971 1.75504865E-08
  972 1.77926849E-08
  973 1.79104286E-08
  974 1.82093243E-08
  975 1.80663761E-08
  976 1.83710516E-08
  977 1.86157459E-08
  978 1.88978423E-08
  979 1.87732922E-08
  980 1.90552867E-08
  981 1.91337638E-08
  982 1.92730356E-08
  983 1.92903625E-08
  984 1.94291930E-08
  985 1.92785449E-08
  986 1.91470714E-08
  987 1.94351826E-08
  988 1.93044631E-08
  989 1.89116530E-08
  990 1.86147334E-08
  991 1.90686094E-08
  992 1.87693630E-08
  993 1.83172892E-08
  994 1.80449786E-08
  995 1.84655507E-08
  996 1.81840648E-08
  997 1.78121482E-08
  998 1.76213005E-08
  999 1.79400236E-08
  1000 1.77368624E-08
  1001 1.74685305E-08
  1002 1.73473813E-08
  1003 1.75715912E-08
  1004 1.74385678E-08
  1005 1.72510054E-08
  1006 1.71731230E-08
  1007 1.73316261E-08
  1008 1.72450179E-08
  1009 1.71082753E-08
  1010 1.70517328E-08
  1011 1.71736601E-08
  1012 1.71130459E-08
  1013 1.69992855E-08
  1014 1.69470501E-08
  1015 1.70590512E-08
  1016 1.70077715E-08
  1017 1.68913678E-08
  1018 1.68312380E-08
  1019 1.69568330E-08
  1020 1.69019254E-08
  1021 1.67607868E-08
  1022 1.66781224E-08
  1023 1.68392966E-08
  1024 1.67664905E-08
  1025 1.65820540E-08
  1026 1.64729994E-08
  1027 1.66821306E-08
  1028 1.65863383E-08
  1029 1.63534247E-08
  1030 1.62280748E-08
  1031 1.64810935E-08
  1032 1.63704025E-08
  1033 1.61038063E-08
  1034 1.59888888E-08
  1035 1.62601279E-08
  1036 1.61573858E-08
  1037 1.58918114E-08
  1038 1.58198573E-08
  1039 1.60695457E-08
  1040 1.60030440E-08
  1041 1.57778667E-08
  1042 1.57675754E-08
  1043 1.59623404E-08
  1044 1.59493214E-08
  1045 1.57876862E-08
  1046 1.58345402E-08
  1047 1.59632892E-08
  1048 1.60014520E-08
  1049 1.59030803E-08
  1050 1.59877902E-08
  1051 1.60596856E-08
  1052 1.61333175E-08
  1053 1.60834116E-08
  1054 1.61853748E-08
  1055 1.62177569E-08
  1056 1.63089046E-08
  1057 1.62899801E-08
  1058 1.63944044E-08
  1059 1.64033529E-08
  1060 1.64984306E-08
  1061 1.43461830E-08
  1062 1.43751207E-08
  1063 1.42897657E-08
  1064 1.40673980E-08
  1065 1.38062100E-08
  1066 1.32925432E-08
  1067 1.22985772E-08
  1068 1.14556437E-08
  1069 1.26139027E-08
  1070 1.17811599E-08
  1071 1.05115970E-08
  1072 9.56710650E-09
  1073 1.08419658E-08
  1074 9.89745026E-09
  1075 8.77043028E-09
  1076 8.28431006E-09
  1077 9.09585696E-09
  1078 8.60369156E-09
  1079 8.21996594E-09
  1080 8.58155980E-09
  1081 8.53557124E-09
  1082 8.89678420E-09
  1083 9.27372442E-09
  1084 1.00974180E-08
  1085 9.55829492E-09
  1086 1.04086401E-08
  1087 1.09974212E-08
  1088 1.18722178E-08
  1089 1.13015792E-08
  1090 1.21373179E-08
  1091 1.26338378E-08
  1092 1.32725352E-08
  1093 1.28721590E-08
  1094 1.35305234E-08
  1095 1.38145352E-08
  1096 1.42739850E-08
  1097 1.40352325E-08
  1098 1.44816984E-08
  1099 1.46411635E-08
  1100 1.49334573E-08
  1101 1.48163670E-08
  1102 1.50887974E-08
  1103 1.49803715E-08
  1104 1.51430652E-08
  1105 1.52979165E-08
  1106 1.55071335E-08
  1107 1.54777198E-08
  1108 1.55217110E-08
  1109 1.55904454E-08
  1110 1.56246503E-08
  1111 1.56806164E-08
  1112 1.56200122E-08
  1113 1.56119521E-08
  1114 1.57143305E-08
  1115 1.55163948E-08
  1116 1.53807904E-08
  1117 1.56075790E-08
  1118 1.54703508E-08
  1119 1.52294789E-08
  1120 1.50837207E-08
  1121 1.53188484E-08
  1122 1.51741220E-08
  1123 1.49673887E-08
  1124 1.49025020E-08
  1125 1.50596137E-08
  1126 1.49967118E-08
  1127 1.49042502E-08
  1128 1.49769526E-08
  1129 1.49997201E-08
  1130 1.50733002E-08
  1131 1.51222902E-08
  1132 1.53149688E-08
  1133 1.52208613E-08
  1134 1.54119184E-08
  1135 1.55402022E-08
  1136 1.57802153E-08
  1137 1.56351333E-08
  1138 1.58733475E-08
  1139 1.60211291E-08
  1140 1.62539780E-08
  1141 1.61131476E-08
  1142 1.63457989E-08
  1143 1.64744623E-08
  1144 1.66821411E-08
  1145 1.65669932E-08
  1146 1.67760713E-08
  1147 1.68069205E-08
  1148 1.69987731E-08
  1149 1.69353142E-08
  1150 1.70955416E-08
  1151 1.71926834E-08
  1152 1.73962235E-08
  1153 1.72899057E-08
  1154 1.74920351E-08
  1155 1.76175130E-08
  1156 1.79071004E-08
  1157 1.77091018E-08
  1158 1.79918661E-08
  1159 1.81774184E-08
  1160 1.85556963E-08
  1161 1.83603619E-08
  1162 1.86107102E-08
  1163 1.88639534E-08
  1164 1.91328655E-08
  1165 1.88985770E-08
  1166 1.91438554E-08
  1167 1.93560798E-08
  1168 1.94878114E-08
  1169 1.93461621E-08
  1170 1.94651300E-08
  1171 1.94937639E-08
  1172 1.93695189E-08
  1173 1.94702364E-08
  1174 1.93567187E-08
  1175 1.91391638E-08
  1176 1.88535820E-08
  1177 1.91437658E-08
  1178 1.88771720E-08
  1179 1.85555111E-08
  1180 1.82754223E-08
  1181 1.85946967E-08
  1182 1.83245885E-08
  1183 1.80287174E-08
  1184 1.78198237E-08
  1185 1.80820645E-08
  1186 1.78725769E-08
  1187 1.76469929E-08
  1188 1.75058086E-08
  1189 1.76959146E-08
  1190 1.75492803E-08
  1191 1.73911798E-08
  1192 1.72982176E-08
  1193 1.74290481E-08
  1194 1.73315144E-08
  1195 1.72224535E-08
  1196 1.71597497E-08
  1197 1.72530548E-08
  1198 1.71900239E-08
  1199 1.71061328E-08
  1200 1.70580508E-08
  1201 1.71386255E-08
  1202 1.70962085E-08
  1203 1.70128418E-08
  1204 1.69652275E-08
  1205 1.70579493E-08
  1206 1.70193116E-08
  1207 1.69118825E-08
  1208 1.68501746E-08
  1209 1.69767163E-08
  1210 1.69272987E-08
  1211 1.67785215E-08
  1212 1.66967490E-08
  1213 1.68692424E-08
  1214 1.68020797E-08
  1215 1.66063767E-08
  1216 1.65107275E-08
  1217 1.67269066E-08
  1218 1.66464356E-08
  1219 1.64147540E-08
  1220 1.63245181E-08
  1221 1.65648163E-08
  1222 1.64871826E-08
  1223 1.62463602E-08
  1224 1.61859224E-08
  1225 1.64189632E-08
  1226 1.63650828E-08
  1227 1.61472783E-08
  1228 1.61324049E-08
  1229 1.63292413E-08
  1230 1.63134530E-08
  1231 1.61411116E-08
  1232 1.61713812E-08
  1233 1.63179379E-08
  1234 1.63413449E-08
  1235 1.62199550E-08
  1236 1.62829699E-08
  1237 1.63811885E-08
  1238 1.64343564E-08
  1239 1.63565014E-08
  1240 1.64369406E-08
  1241 1.64975651E-08
  1242 1.65676992E-08
  1243 1.65212036E-08
  1244 1.66068054E-08
  1245 1.66420190E-08
  1246 1.67182543E-08
  1247 1.13214464E-08
  1248 1.11464860E-08
  1249 1.10434859E-08
  1250 9.81524180E-09
  1251 9.09753146E-09
  1252 8.52843840E-09
  1253 8.21518374E-09
  1254 8.22506042E-09
  1255 8.57558160E-09
  1256 9.22215010E-09
  1257 1.09170234E-08
  1258 1.00380009E-08
  1259 1.09170956E-08
  1260 1.17117619E-08
  1261 1.25075737E-08
  1262 1.17705018E-08
  1263 1.26131990E-08
  1264 1.31394773E-08
  1265 1.36540314E-08
  1266 1.32855373E-08
  1267 1.38338833E-08
  1268 1.40502965E-08
  1269 1.43319188E-08
  1270 1.42595104E-08
  1271 1.45679898E-08
  1272 1.45756798E-08
  1273 1.46295557E-08
  1274 1.48474576E-08
  1275 1.49094460E-08
  1276 1.45695017E-08
  1277 1.44650999E-08
  1278 1.49547819E-08
  1279 1.47961186E-08
  1280 1.41373757E-08
  1281 1.36566943E-08
  1282 1.45047439E-08
  1283 1.40679458E-08
  1284 1.30152974E-08
  1285 1.22250107E-08
  1286 1.34813471E-08
  1287 1.27596427E-08
  1288 1.13338213E-08
  1289 1.04364079E-08
  1290 1.19511299E-08
  1291 1.11414225E-08
  1292 9.67434946E-09
  1293 9.20413752E-09
  1294 1.04570125E-08
  1295 1.00342511E-08
  1296 9.13449760E-09
  1297 9.47234042E-09
  1298 9.96803166E-09
  1299 1.02663954E-08
  1300 1.00885818E-08
  1301 1.08959451E-08
  1302 1.08053970E-08
  1303 1.15352114E-08
  1304 1.17373068E-08
  1305 1.25324418E-08
  1306 1.22982916E-08
  1307 1.30194263E-08
  1308 1.32225716E-08
  1309 1.38010334E-08
  1310 1.36429484E-08
  1311 1.41625166E-08
  1312 1.43233259E-08
  1313 1.47142461E-08
  1314 1.45841369E-08
  1315 1.49780779E-08
  1316 1.50256631E-08
  1317 1.52662362E-08
  1318 1.52530691E-08
  1319 1.54642081E-08
  1320 1.54547009E-08
  1321 1.56481066E-08
  1322 1.58664058E-08
  1323 1.59777575E-08
  1324 1.57188882E-08
  1325 1.57435064E-08
  1326 1.58631818E-08
  1327 1.58787105E-08
  1328 1.57237437E-08
  1329 1.58293012E-08
  1330 1.58531232E-08
  1331 1.57904028E-08
  1332 1.57229698E-08
  1333 1.55885101E-08
  1334 1.58620512E-08
  1335 1.57339926E-08
  1336 1.54416925E-08
  1337 1.53027578E-08
  1338 1.55957275E-08
  1339 1.54661897E-08
  1340 1.51939432E-08
  1341 1.51352551E-08
  1342 1.53658171E-08
  1343 1.53127054E-08
  1344 1.51398624E-08
  1345 1.52228406E-08
  1346 1.53326274E-08
  1347 1.54027734E-08
  1348 1.53589473E-08
  1349 1.55432414E-08
  1350 1.55308556E-08
  1351 1.57040889E-08
  1352 1.57587957E-08
  1353 1.59896023E-08
  1354 1.59073160E-08
  1355 1.61260632E-08
  1356 1.62230251E-08
  1357 1.64506719E-08
  1358 1.63487043E-08
  1359 1.65672826E-08
  1360 1.66681926E-08
  1361 1.68323174E-08
  1362 1.67331513E-08
  1363 1.69347511E-08
  1364 1.70312055E-08
  1365 1.71888179E-08
  1366 1.71281711E-08
  1367 1.73158436E-08
  1368 1.73793492E-08
  1369 1.75752728E-08
  1370 1.74631967E-08
  1371 1.76492499E-08
  1372 1.77826033E-08
  1373 1.81953767E-08
  1374 1.80684401E-08
  1375 1.82420292E-08
  1376 1.84039304E-08
  1377 1.86295042E-08
  1378 1.84274410E-08
  1379 1.86238924E-08
  1380 1.88908873E-08
  1381 1.91051891E-08
  1382 1.88560235E-08
  1383 1.90355738E-08
  1384 1.92802519E-08
  1385 1.93822717E-08
  1386 1.91801470E-08
  1387 1.92628356E-08
  1388 1.93854620E-08
  1389 1.92818177E-08
  1390 1.92620318E-08
  1391 1.91704722E-08
  1392 1.90936718E-08
  1393 1.88527108E-08
  1394 1.90070205E-08
  1395 1.87945633E-08
  1396 1.85926312E-08
  1397 1.83384890E-08
  1398 1.85601471E-08
  1399 1.83249725E-08
  1400 1.81048566E-08
  1401 1.78981658E-08
  1402 1.81025298E-08
  1403 1.79000816E-08
  1404 1.77199604E-08