# File generated by Flopy version 3.9.1 on 02/10/2026 at 22:04:23.
BEGIN options
END options

BEGIN packages
  dis6  struc_caseC.dis  dis
  ic6  struc_caseC.ic  ic
  chd6  struc_caseC.chd  chd
  npf6  struc_caseC.npf  npf
  wel6  struc_caseC.wel  well_casec
  rch6  struc_caseC.rch  rch
  evt6  struc_caseC.evt  evt
  oc6  struc_caseC.oc  oc
END packages

