# File generated by Flopy version 3.9.1 on 02/10/2026 at 22:04:31.
BEGIN options
  BUDGET  FILEOUT  struc_caseC.cbc
  HEAD  FILEOUT  struc_caseC.hds
END options

BEGIN period  1
  SAVE  head  last
  SAVE  budget  last
  PRINT  budget  last
END period  1

