# File generated by Flopy version 3.9.1 on 01/21/2026 at 05:24:00.
BEGIN options
END options

BEGIN griddata
  strt
    INTERNAL  FACTOR  1.0
        -6.50000000      -6.50000000      -6.50000000      -0.50000000      -0.50000000      -0.50000000      -0.50000000      -6.50000000      -6.50000000      -6.50000000      -6.50000000      -6.50000000      -6.50000000      -6.50000000      -6.50000000      -6.50000000      -9.50000000      -9.50000000      -6.50000000      -8.50000000
        -8.50000000      -8.50000000      -8.50000000      -6.50000000      -6.50000000      -6.50000000      -6.50000000       0.50000000       0.50000000       0.50000000       0.50000000       0.50000000       0.50000000       0.50000000       0.50000000      -7.50000000      -7.50000000      -7.50000000      -7.50000000      -0.50000000
        -0.50000000      -0.50000000      -0.50000000       2.45517358       2.53265722       2.46432095       2.54489735       0.50000000       0.50000000       0.50000000       0.50000000      -0.50000000      -0.50000000      -0.50000000      -0.50000000      -9.50000000      -9.50000000      -2.50000000      -2.50000000      -2.50000000
        -2.50000000      -2.50000000      -9.50000000      -9.50000000      -6.50000000      -6.50000000      -6.50000000      -6.50000000       1.61008362       1.66959206       1.58623841       1.65491678       1.73428104       1.80057740       1.72662349       1.79744019       1.86724838       1.93451909       1.86672076       1.93545022
         1.50000000       1.50000000       1.50000000       1.50000000       1.50000000       1.50000000       1.50000000       1.50000000      -0.50000000      -0.50000000      -0.50000000      -0.50000000      -8.50000000      -8.50000000      -8.50000000      -8.50000000      -6.50000000      -6.50000000      -6.50000000      -6.50000000
        -6.50000000      -6.50000000      -6.50000000      -6.50000000      -6.50000000      -6.50000000      -6.50000000      -6.50000000       0.50000000       0.50000000       0.50000000       0.50000000      -9.50000000      -9.50000000      -2.50000000      -2.50000000      -2.50000000      -2.50000000      -2.50000000       1.86922808
         1.87555150       1.87890084       1.88669107       1.87577566       1.86966050       1.88839173       1.88379686       1.85679813       1.83653747       1.87251453       1.85386316       1.81193710       1.77295414       1.82684819       1.79250769      -0.50000000      -0.50000000      -0.50000000      -0.50000000       0.50000000
         0.50000000       0.50000000       0.50000000      -0.50000000      -0.50000000      -0.50000000      -0.50000000       1.45877165       1.50244172       1.43686438       1.48894313       1.57108376       1.64976260       1.57049634       1.65851004       1.72792030       1.80198617       1.74081935       1.81562596       1.87250239
         1.94148567       1.88529335       1.95296184       2.01111915       2.08323773       2.02141935       2.09282485       2.15912874       2.23943164       2.16864518       2.24961227       0.50000000       0.50000000       0.50000000       0.50000000       2.50000000       2.50000000       2.50000000       2.50000000       2.67916711
         2.76029049       2.70197084       2.78623557       2.83265000       2.89355126       2.86135143       2.92437717       2.94071344       2.97237900       2.97281639       3.00472197       2.98735634       2.98502076       3.01871981       3.01398150       1.50000000       1.50000000       1.50000000       1.50000000      -9.50000000
        -9.50000000      -9.50000000      -9.50000000      -9.50000000      -0.50000000      -0.50000000      -0.50000000       1.47062453       1.52571903       1.46738005       1.52444944       1.57853317       1.62822091       1.57927546       1.63098220       1.70322035       1.79880983       1.70770942       1.80439858       1.85238776
         1.87384465       1.85961088       1.88299634       1.88936093       1.89892896       1.90047108       1.91209993       1.90251534       1.89999406       1.91794343       1.91799761       1.89106349       1.87513449       1.91212303       1.89995184       1.85301939       1.82024052       1.88074733       1.85580895       1.78112357
         1.71609751       1.82406382       1.76860276       1.63217092       1.53482060       1.69325093       1.59600061       1.45183669       1.42057751       1.49711912       1.44734351       1.43358562       1.49865456       1.46964843       1.50000000       1.59320091       1.68613669       1.64981506       1.73628211       1.76754919
         1.83917121       1.80872294       1.87228436       1.90529799       1.96986040       1.93200395       1.99172718       1.50000000       1.50000000       1.50000000       1.50000000       2.18097997       2.26221318       2.19596356       2.27712557       2.34943035       2.44168296       2.36528003       2.45938167       2.53715473
         2.63325736       2.55746314       2.65672776       2.72682595       2.81439329       2.75375807       2.84481527       2.89249527       2.95794830       2.92617325       2.99441814       3.00804841       3.04066780       3.04665543       3.08059686       3.05425464       3.04776926       3.09453401       3.08723266       3.02060825
         2.97258803       3.05779896       3.00558734      -6.50000000      -6.50000000      -6.50000000      -6.50000000      -6.50000000      -6.50000000      -6.50000000      -6.50000000      -0.50000000      -0.50000000      -0.50000000      -0.50000000      -9.50000000      -9.50000000      -9.50000000      -9.50000000      -2.50000000
        -2.50000000      -2.50000000       1.34300410       1.40352358       1.33559611       1.39777293       1.46376795       1.52278368       1.45980377       1.52071305       1.57961430       1.63335622       1.57951773       1.63528861       1.71191777       1.80994020       1.71576843       1.81533467       1.86697503       1.89243841
         1.87435336       1.90201323       1.91205995       1.92598835       1.92392955       1.94033993       1.93439623       1.93743129       1.95153651       1.95782978       1.93516780       1.92755563       1.95952503       1.95692062       1.91435582       1.89755197       1.95034189       1.94265694       1.87717436       1.83906403
         1.93544138       1.91853703       1.78807421       1.71913047       1.90167593       1.88563763      -0.50000000      -0.50000000      -0.50000000      -0.50000000       1.60276421       1.67218787       1.84115609       1.84522732       1.74490970       1.80733184       1.86285792       1.88937799       1.86196670       1.91309147
         1.92163469       1.95837187       1.96410649       2.01767962       1.99969655       2.04653199       2.07599301       2.14079602       2.10016656       2.16189691       2.21332747       2.29417319       2.23273174       2.31312906       2.38310914       2.47897953       2.40276710       2.50037672       2.57966011       2.68214517
         2.60367880       2.70946509       2.78276852       2.87752833       2.81383158       2.91252933       2.96245050       3.03391069       3.00135748       3.07650800       3.08884939       3.12484948       3.13478907       3.17369527       3.14008456       3.13317263       3.19133555       3.18625608       2.50000000       2.50000000
         2.50000000       2.50000000       2.96844152       2.86212765       3.02137960       2.91073480      -7.50000000      -7.50000000      -7.50000000      -7.50000000      -6.50000000      -6.50000000      -6.50000000      -6.50000000      -6.50000000      -6.50000000      -6.50000000      -6.50000000      -6.50000000      -6.50000000
        -6.50000000      -6.50000000      -6.50000000      -6.50000000      -6.50000000      -6.50000000      -1.50000000      -1.50000000      -1.50000000      -1.50000000      -1.50000000      -2.50000000      -2.50000000      -2.50000000      -2.50000000      -2.50000000      -2.50000000      -2.50000000       0.50000000       0.50000000
         0.50000000       0.50000000       1.45551173       1.51823554       1.45092508       1.51535661       1.57895812       1.63672672       1.57791354       1.63762152       1.71918314       1.82047747       1.72208491       1.82526310      -0.50000000      -0.50000000      -0.50000000      -0.50000000      -0.50000000      -0.50000000
        -0.50000000      -0.50000000       1.97217284       1.98146331       1.98954577       2.00224593       1.98446457       1.98693332       2.01164246       2.01855323       1.98688883       1.99601693       2.02404641       2.03870715       1.50000000       1.50000000       1.50000000       1.50000000       2.00688708       2.03409441
         2.08570323       2.13081892       0.50000000       0.50000000       0.50000000       0.50000000       2.03756471       1.99595382       2.11090205       2.07956961       1.97087026       1.96782290       2.04757366       2.03253839       1.98074994       2.00448690       2.03419036       2.04859320       2.03670318       2.07701335
         2.07339756       2.10799626       2.12602467       2.18467975       2.15279905       2.20860937       2.25380064       2.33373647       2.27615847       2.35573064       2.42407756       2.52344947       2.44685128       2.54805705       2.62942823       2.73861673       2.65679591       2.76950231       2.84689143       2.94977947
         2.88185854       2.98919789       3.04288120       3.12223737       3.08695590       3.17105873       3.18456120       3.22730388       3.23816362       3.28572173       3.24857013       3.24692793       3.31188932       3.31534508       3.22114975       3.16988607       3.29506262       3.25003343       3.09123166       2.98219998
         3.17883403       3.07883210       2.83859296       2.65744390       2.94499535       2.76975680       2.44786257       2.25543211       2.55130582       2.33147436       2.15321634       1.97533785       2.33576706       2.01497612       2.05941997       2.22433955       2.09663225       2.29261036       2.41703214       2.59255470
         2.50229186       2.67752369      -6.50000000      -6.50000000      -6.50000000      -6.50000000       2.93789331       3.00807979       2.99555127       3.05805359       3.06409465       3.10916337       3.10777259       3.14770084      -2.50000000      -2.50000000      -0.50000000      -0.50000000      -0.50000000      -0.50000000
        -3.50000000      -3.50000000      -3.50000000      -3.50000000       1.31304348       1.37939965       1.30574297       1.37313556       1.44608604       1.51208991       1.44104532       1.50845750       1.57636901       1.63792949       1.57431762       1.63761434       1.72440058       1.82958853       1.72606331       1.83335656
        -1.50000000      -1.50000000      -1.50000000      -1.50000000       0.50000000       0.50000000       0.50000000       0.50000000       2.00653254       2.02255530       2.02281649       2.04200844       2.03576550       2.04708088       2.05876708       2.07403255       2.05761639       2.06882524       2.08882794       2.10424096
         2.08955222       2.10760351       2.12824668       2.14669594       2.13773340       2.18702195       2.17184773       2.21014923       2.28468008       2.10134890       2.29365880       2.20678334       2.12398363       2.11677167       2.14451440       2.14104818       2.09636957       2.08271117       2.13213641       2.12377131
         2.08049223       2.08935195       2.12111386       2.12675327       2.10869648       2.13864184       2.14213651       2.16841551       2.17985531       2.23321417       2.20671767       2.25810931       2.29945877       2.37885734       2.32340300       2.40288645       2.47089760       2.57404797       2.49603323       2.60126462
         2.68564997       2.80199583       2.71584023       2.83594093       2.91860539       3.03065457       2.95696150       3.07396245       3.13345318       3.22285225       3.18217139       3.27740570       3.29549112       3.34885744       3.35632300       3.41647482       3.38119785       3.39135729       3.45621280       3.47454822
         3.37862580       3.34262055       3.47108649       3.44613770       3.28310139       3.19938546       3.40100191       3.33816192       3.08878823       2.94395285       3.26063662       3.16934141       2.75292205       2.52080936       3.05828499       2.91447583       2.32043934       2.19539050       2.74857125       2.64765348
         2.27628697       2.47311163       2.68382334       2.78866093       2.66134314       2.80759128       2.89146956       2.97563126       2.91709210       3.00025916       3.04318758       3.09809532       3.06492031       3.11618062       3.14326237       3.18063608       3.15734528       3.19063088       3.21157475       3.23709243
        -2.50000000      -2.50000000      -2.50000000      -2.50000000      -2.50000000      -2.50000000      -2.50000000      -1.50000000      -1.50000000      -1.50000000      -1.50000000      -1.50000000      -1.50000000      -1.50000000      -1.50000000       0.50000000       0.50000000       0.50000000       0.50000000       0.50000000
         0.50000000       0.50000000       0.50000000       1.43586114       1.50448985       1.43059779       1.50022531       1.57176122       1.63664861       1.56871089       1.63501492       1.72701497       1.83647896       1.72720811       1.83887915       1.91128868       1.95014290       1.88848668       1.95700623       1.98382416
         2.01290903       1.99295463       2.02443537       2.03812046       2.06028831       2.05220507       2.07712992       2.08031381       2.09913137       2.10014093       2.12217983       1.50000000       1.50000000       1.50000000       1.50000000       2.16329262       2.18160367       2.19660415       2.21720479       2.20088085
         2.22018700       2.23660110       2.25019875       2.23465012       2.20529084       2.25225096       2.24027300       2.17639813       2.17214621       2.22749413       2.21923309       2.16800556       2.16189714       2.21003573       2.20021770       2.15834712       2.16135373       2.19349394       2.19351363       2.17360724
         2.19700275       2.20305371       2.22420080       2.23305034       2.28299996       2.25862311       2.30767424       2.34774914       2.42762007       2.37231349       2.45289594       2.52208789       2.62954600       2.54890675       2.65872839       2.74719811       2.87114813       2.77953533       2.90739145       2.99670779
         3.11886893       3.03757096       3.16504724       3.23282409       3.33440053       3.28502800       3.39339599       3.42030943       3.48818703       3.48695304       3.56344174       3.53648390       3.56432102       3.62140073       3.65997697       3.57147655       3.55869615       3.67888074       3.67875001       3.52849761
         3.48643400       3.66227723       3.63637656       3.44218412       3.40885549       3.61493905       3.61958633       3.39797394       3.40704666       3.67166699       3.76276437       3.40207792       3.33602148       3.81797475       3.77839903       3.23681448       3.17302466       3.64514887       3.49308746       3.15356389
         3.16038276       3.38913099       3.33465795       3.17938675       3.20280953       3.31203989       3.30702287       3.22666878       3.24899566       3.31087734       3.31864838       3.26889033       3.28602551       3.32760716       3.33629200      -2.50000000      -2.50000000      -2.50000000      -2.50000000      -2.50000000
        -3.50000000      -3.50000000      -3.50000000      -3.50000000      -1.50000000      -1.50000000      -1.50000000      -1.50000000      -2.50000000      -2.50000000      -2.50000000      -2.50000000      -0.50000000      -0.50000000      -0.50000000      -0.50000000      -1.50000000      -1.50000000      -1.50000000      -1.50000000
         1.15442616       1.21892784       1.14945443       1.21362090       1.28602196       1.35509772       1.28053587       1.34963237       1.42532373       1.49570926       1.42010939       1.49099284       1.56518701       1.63270692       1.56121893       1.62972992       1.72660781       1.84049455       1.72519299       1.84127858
         1.89200819       1.96292082       1.89454704       1.96778855       2.00100692       2.03472953       2.00785781       2.04364350       2.06486513       2.09230550       2.07592813       2.10561763       2.11801122       2.14295909       2.13369836       2.16119669       1.50000000       1.50000000       1.50000000       1.50000000
         2.22843391       2.25424010       2.25737138       2.28933423       2.28097794       2.30429350       2.32580385       2.36221487       0.50000000       0.50000000       0.50000000       0.50000000       2.29599330       2.27524933       2.33985641       2.31861533       2.25473240       2.23755066       2.29272864       2.27018528
         2.22619422       2.22306402       2.25505548       2.24948854       2.23032487       2.24985512       2.25521441       2.27386330       2.28328744       2.33199564       2.30697301       2.35589926       2.39696908       2.47858735       2.42164236       2.50460015       2.57635012       2.68864422       2.60429064       2.71911959
         2.81264182       2.94440516       2.84628346       2.98188153       3.07921851       3.21208900       3.12125588       3.25949948       3.33829136       3.45381163       3.39200551       3.51491148       3.55558367       3.64148776       3.62532904       3.72132232       3.71015858       3.76071254       3.80166762       3.86547624
         3.79256774       3.80563926       3.91180562       3.93948105       3.80138762       3.78535226       3.94760133       3.93765752       3.77118330       3.78294514       3.91831075       3.91108386       3.84532219       3.94608975       3.94668512       4.05203852       3.94733015       3.89491047       4.69341517       3.90692860
         3.82307104       3.68662733       3.88107411       3.78425369       3.56277531       3.47940717       3.67651652       3.59047322       3.43067365       3.40470365       3.53103249       3.49257288       3.39222806       3.38725785       3.46834363       3.45310899       3.38616318       3.38680412       3.44330492       3.43662895
        -2.50000000      -2.50000000      -2.50000000      -2.50000000      -2.50000000      -2.50000000      -0.50000000      -0.50000000      -0.50000000      -0.50000000       0.55239104       0.47781141       0.55128295       0.45709856       0.41904969       0.39030590       0.38081716       0.34351686       0.39605724       0.42925264
         0.35416579       0.39987107      -0.50000000      -0.50000000      -0.50000000      -0.50000000      -0.50000000      -0.50000000      -0.50000000      -0.50000000      -1.50000000      -1.50000000      -1.50000000      -1.50000000      -3.50000000      -3.50000000      -3.50000000      -3.50000000      -0.50000000      -0.50000000
        -0.50000000      -0.50000000       1.02814922       1.08540775       1.02804382       1.08417819       1.14578320       1.20931404       1.14349480       1.20608618       1.27575451       1.34458103       1.27175433       1.34001662       1.41502474       1.48613139       1.41013674       1.48118268       1.50000000       1.50000000
         1.50000000       1.50000000       1.50000000       1.50000000       1.50000000       1.50000000       1.89605073       1.97153498       1.89648875       1.97411132       2.01341164       2.05106106       2.01760270       2.05690097       2.08525673       2.11690353       2.09275432       2.12604713       2.14699915       2.17660603
         2.15776335       2.18896307       2.20683858       2.23887687       2.22077803       2.25443267       2.27933330       2.31799444       2.29683196       2.33809749       2.36191142       2.41184708       2.38391571       2.44478449       2.44629855       2.34784463       2.60022089       2.34428025       2.34765272       2.34108450
         2.35256366       2.35228895       2.31860400       2.29537877       2.33408857       2.31308239       2.27891137       2.27236774       2.29761823       2.29171265       2.27761004       2.29621988       2.29761912       2.31705509       2.32969688       2.37938936       2.35156851       2.40253279       2.44630766       2.53086705
         2.47097776       2.55733885       2.63260855       2.74997082       2.66118509       2.78100086       2.88020031       3.01947056       2.91410615       3.05678288       3.16322725       3.30669836       3.20462164       3.35302846       3.44544329       3.57579579       3.49776899       3.63540886       3.69509094       3.80163317
         3.76354274       3.88076617       3.89442327       3.97269333       3.98639701       4.07997037       4.03530979       4.08014799       4.16051267       4.22557995       4.10374760       4.10217895       4.27012570       4.28573414       4.07524103       4.03597882       4.26235144       4.19790197       4.01818997       4.06146501
         4.11765384       4.06770463       4.11309327       3.95651022       4.03467639       3.97697900       3.90629684       3.83533952       3.92890846       3.87348489       3.75110604       3.67469293       3.80787676       3.74269426       3.61452863       3.57020083       3.68565194       3.63910655       3.53829272       3.51523512
         3.60228673       3.57332520       3.49817433       3.48504613       3.55028937       3.53155268     -16.50000000     -16.50000000     -16.50000000     -14.50000000      -2.50000000      -2.50000000      -2.50000000      -2.50000000      -2.50000000      -2.50000000      -2.50000000      -2.50000000      -2.50000000       0.50000000
         0.50000000       0.46595522       0.50000000       0.50000000       0.50000000       0.50000000       0.50000000      -0.50000000      -0.50000000      -0.50000000      -0.50000000       0.50000000       0.50000000       0.50000000       0.50000000       0.50000000       0.50000000       0.50000000       0.50000000       0.82052884
         0.79034099       0.85495596       0.83061647       0.74162415       0.66948955       0.78889181       0.72324594       0.56985312       0.45350400       0.62213003       0.48577653       0.35695343       0.30126345       0.38828905       0.27040877       0.31984238       0.38132307       0.30764591       0.38482400       0.45649192
         0.52858814       0.47053791       0.54737112       0.59410705       0.66029588       0.61402117       0.66745594       0.71066832       0.77562989       0.72814415       0.79038504      -0.50000000      -0.50000000      -0.50000000      -0.50000000       0.92860229       0.97822089       0.93656483       0.98419532       1.03002752
         1.08469553       1.03409706       1.08696294       1.14263878       1.20399095       1.14322877       1.20305402       1.26859347       1.33600038       1.26630932       1.33257952       0.50000000       0.50000000       0.50000000       0.50000000       1.50000000       1.50000000       1.50000000       1.50000000       1.50000000
         1.50000000       1.50000000       1.50000000       1.89585377       1.97549591       1.89416210       1.97569500       2.02039733       2.06112034       2.02179517       2.06371664       2.09837114       2.13299226       2.10210823       2.13775054       2.16592359       2.19817433       2.17151133       2.20430631       2.23080669
         2.26492623       2.23706047       2.27065350       2.30763467       2.34781798       2.31248304       2.34956192       2.39029108       2.44271000       2.38498653       2.42085569       2.51102901       2.43367703       2.44221443       2.41740468       2.37350649       2.36035218       2.38400732       2.36486094       2.34308979
         2.32496992       2.34804265       2.33293900       2.31196261       2.30799982       2.32313851       2.32199247       2.31559071       2.33663500       2.33204326       2.35532089       2.37277820       2.42544386       2.39356758       2.44826103       2.49568965       2.58397319       2.52048656       2.61072194       2.68989520
         2.81199638       2.71860039       2.84272642       2.94769045       3.09339690       2.98062319       3.12887047       3.24488559       3.39777456       3.28344296       3.44019316       3.54806385       3.69257093       3.59536860       3.74603819       3.82916526       3.95675576       3.89033110       4.02744404       4.07503268
         4.18397473       4.15741482       4.28066689       4.28309870       4.37036960       4.39728962       4.50594421       4.44066551       4.48388733       4.60222647       4.67645457       4.48379847       4.42244096       4.71150721       4.68260349       4.30217404       4.17232607       4.56796061       4.39083885       4.07996939
         4.01796470       4.22825675       4.11847830       3.96928599       3.91897662       4.04435973       3.98289805       3.86237121       3.80399691       3.92341250       3.86484939       3.74938628       3.70155466       3.80954288       3.75956961       3.66114592       3.62749291       3.71577686       3.67801402       3.59944730
         3.57582524       3.64559700       3.61766013     -16.50000000     -16.50000000     -16.50000000     -16.50000000     -16.50000000     -16.50000000     -16.50000000     -16.50000000     -14.50000000     -14.50000000     -14.50000000     -14.50000000       0.47227151       0.46981633       0.47394553       0.47223838       0.46347614
         0.45175657       0.46712220       0.45669088      -0.50000000      -0.50000000      -0.50000000      -0.50000000      -0.50000000      -0.50000000      -0.50000000      -0.50000000       0.32218122       0.31606884       0.30517177       0.29045957       0.33079465       0.36026475       0.31171634       0.34918765       0.39514785
         0.46130476       0.40595573       0.45802004       0.51658023       0.57029261       0.51537579       0.57161076       0.62592660       0.68187765       0.62916177       0.68764024       0.73641445       0.78702826       0.74557680       0.80048558       0.83082692       0.86509796       0.84932723       0.88918410       0.88779886
         0.89780023       0.91788042       0.93436518       0.89482916       0.87904934       0.93887194       0.93295878       0.50000000       0.50000000       0.50000000       0.50000000       0.72282834       0.58645529       0.86597558       0.78935463       0.44722704       0.34834341       0.63005680       0.48579515      -1.50000000
        -1.50000000      -1.50000000      -1.50000000      -2.50000000      -2.50000000      -2.50000000      -2.50000000       0.64620541       0.69561536       0.69042713       0.73209393      -0.50000000      -0.50000000      -0.50000000      -0.50000000       0.85295273       0.90374184       0.87385340       0.92043188      -0.50000000
        -0.50000000      -0.50000000      -0.50000000       1.04018966       1.09093665       1.04818395       1.09652697       1.14524122       1.20327186       1.14861604       1.20461191       1.26491703       1.32978549       1.26440918       1.32763317       1.39722836       1.46638630       1.39365770       1.46164737       1.50000000
         1.50000000       1.50000000       1.50000000       1.70622303       1.83237192       1.66740465       1.82821710       1.89145329       1.97474243       1.88778881       1.97269821       2.02182901       2.06472766       2.02056302       2.06422890       2.10401732       2.14040093       2.10419639       2.14108107       2.17465385
         2.20757214       2.17555596       2.20828992       2.23991176       2.27229788       2.23987261       2.27070741       2.30506275       2.34603163       2.30084088       2.33968836       2.37418556       2.39869621       2.36198980       2.38012107       2.40968531       2.40016172       2.38832133       2.38479359       2.38158044
         2.36484349       2.37408849       2.36185505       2.35022769       2.33851493       2.35079231       2.34287989       2.33233294       2.33452680       2.34055294       2.34636588       2.34755577       2.37350756       2.36267271       2.39156329       2.41418975       2.47111920       2.43487016       2.49412354       2.54539870
         2.63751902       2.57042644       2.66427119       2.74714327       2.87294354       2.77534507       2.90238796       3.01256300       3.16275701       3.04316831       3.19462491       3.31972085       3.47955135       3.35317949       3.51517120       3.63874078       3.79458738       3.67732003       3.83711358       3.94543279
         4.09068290       3.99303343       4.14457680       4.23060554       4.36590044       4.29205917       4.43617944       4.49699018       4.62288937       4.57727750       4.71411724       4.73942131       4.83676084       4.84193057       4.94950101       4.89794157       4.90187305       5.01645861       5.02713620       4.82306251
         4.64943732       4.98138210       4.84535938       4.44018948       4.27095033       4.63680484       4.43320710       4.15313002       4.06599396       4.27582842       4.15928915       3.99312990       3.92766742       4.06797864       3.99149994       3.86804138       3.81437178       3.92493063       3.86623233       3.76680995
         3.72511551       3.81444332       3.76885777       3.68872321       3.65691240       3.72876969       3.69344964     -16.50000000     -16.50000000     -16.50000000     -16.50000000     -16.50000000     -16.50000000     -16.50000000     -16.50000000      -6.50000000      -6.50000000      -6.50000000      -6.50000000      -4.50000000
        -4.50000000      -4.50000000      -4.50000000       0.40292660       0.41313433       0.40365834       0.41336932       0.42955866       0.44779942       0.45429351       0.45038822       0.44631163       0.47445717       0.44793089       0.47507932       0.47512635       0.47443028       0.47499606       0.47540327       0.47152048