# File generated by Flopy version 3.9.1 on 01/21/2026 at 05:24:01.
BEGIN options
  SAVE_FLOWS
END options

BEGIN dimensions
  MAXBOUND  17861
  NSEG  1
END dimensions

BEGIN period  1
  127       3.00000000  4.04451200E-09       2.00000000
  130      10.00000000  4.04451200E-09       2.00000000
  131      10.00000000  4.04451200E-09       2.00000000
  134       7.00000000  4.04451200E-09       2.00000000
  135       7.00000000  4.04451200E-09       2.00000000
  147       0.00000000  3.92212827E-09       2.00000000
  150       7.00000000  3.85550740E-09       2.00000000
  151       7.00000000  3.85550740E-09       2.00000000
  154       7.00000000  3.85550740E-09       2.00000000
  155       7.00000000  3.85550740E-09       2.00000000
  158       5.00000000  3.85550740E-09       2.00000000
  159       5.00000000  3.85550740E-09       2.00000000
  162       6.00000000  3.82250655E-09       2.00000000
  163       6.00000000  3.82250655E-09       2.00000000
  166       3.00000000  3.82250655E-09       2.00000000
  167       3.00000000  3.82250655E-09       2.00000000
  170       4.00000000  3.82250655E-09       2.00000000
  171       4.00000000  3.82250655E-09       2.00000000
  174       1.00000000  3.78021358E-09       2.00000000
  175       1.00000000  3.78021358E-09       2.00000000
  178       3.00000000  3.78021358E-09       2.00000000
  179       3.00000000  3.78021358E-09       2.00000000
  182       8.00000000  3.78021358E-09       2.00000000
  183       8.00000000  3.78021358E-09       2.00000000
  186       4.00000000  3.92601394E-09       2.00000000
  190       9.00000000  3.92601394E-09       2.00000000
  191       9.00000000  3.92601394E-09       2.00000000
  194       7.00000000  3.92601394E-09       2.00000000
  215       9.00000000  4.25859920E-09       2.00000000
  218       8.00000000  4.25859920E-09       2.00000000
  219       8.00000000  4.25859920E-09       2.00000000
  221       9.00000000  4.25859920E-09       2.00000000
  222       9.00000000  4.25859920E-09       2.00000000
  223       9.00000000  4.25859920E-09       2.00000000
  224       9.00000000  4.25859920E-09       2.00000000
  225       9.00000000  4.04451200E-09       2.00000000
  226       9.00000000  4.25859920E-09       2.00000000
  227       9.00000000  4.04451200E-09       2.00000000
  228      10.00000000  4.04451200E-09       2.00000000
  229      10.00000000  4.04451200E-09       2.00000000
  230      10.00000000  4.04451200E-09       2.00000000
  231      10.00000000  4.04451200E-09       2.00000000
  232       9.00000000  4.04451200E-09       2.00000000
  233       9.00000000  4.04451200E-09       2.00000000
  234       9.00000000  4.04451200E-09       2.00000000
  235       9.00000000  4.04451200E-09       2.00000000
  236       4.00000000  4.04451200E-09       2.00000000
  237       4.00000000  4.04451200E-09       2.00000000
  238       4.00000000  4.04451200E-09       2.00000000
  239       4.00000000  4.04451200E-09       2.00000000
  240       4.00000000  3.92212827E-09       2.00000000
  241       4.00000000  3.92212827E-09       2.00000000
  242       4.00000000  3.92212827E-09       2.00000000
  243       4.00000000  3.92212827E-09       2.00000000
  244       4.00000000  3.92212827E-09       2.00000000
  245       4.00000000  3.92212827E-09       2.00000000
  246       4.00000000  3.92212827E-09       2.00000000
  247       4.00000000  3.92212827E-09       2.00000000
  248       3.00000000  3.92212827E-09       2.00000000
  249       3.00000000  3.92212827E-09       2.00000000
  250       3.00000000  3.92212827E-09       2.00000000
  251       3.00000000  3.92212827E-09       2.00000000
  252       2.00000000  3.85550740E-09       2.00000000
  253       2.00000000  3.85550740E-09       2.00000000
  254       2.00000000  3.85550740E-09       2.00000000
  255       2.00000000  3.85550740E-09       2.00000000
  256       4.00000000  3.85550740E-09       2.00000000
  257       4.00000000  3.85550740E-09       2.00000000
  258       4.00000000  3.85550740E-09       2.00000000
  259       4.00000000  3.85550740E-09       2.00000000
  260       6.00000000  3.85550740E-09       2.00000000
  261       6.00000000  3.85550740E-09       2.00000000
  262       6.00000000  3.85550740E-09       2.00000000
  263       6.00000000  3.85550740E-09       2.00000000
  264       5.00000000  3.82250655E-09       2.00000000
  265       5.00000000  3.82250655E-09       2.00000000
  266       5.00000000  3.82250655E-09       2.00000000
  267       5.00000000  3.82250655E-09       2.00000000
  268       2.00000000  3.82250655E-09       2.00000000
  269       2.00000000  3.82250655E-09       2.00000000
  270       2.00000000  3.82250655E-09       2.00000000
  271       2.00000000  3.82250655E-09       2.00000000
  272       5.00000000  3.82250655E-09       2.00000000
  273       5.00000000  3.82250655E-09       2.00000000
  274       5.00000000  3.82250655E-09       2.00000000
  275       5.00000000  3.82250655E-09       2.00000000
  276       4.00000000  3.78021358E-09       2.00000000
  277       4.00000000  3.78021358E-09       2.00000000
  278       4.00000000  3.78021358E-09       2.00000000
  279       4.00000000  3.78021358E-09       2.00000000
  280       8.00000000  3.78021358E-09       2.00000000
  281       8.00000000  3.78021358E-09       2.00000000
  282       8.00000000  3.78021358E-09       2.00000000
  283       8.00000000  3.78021358E-09       2.00000000
  284       8.00000000  3.78021358E-09       2.00000000
  285       8.00000000  3.78021358E-09       2.00000000
  286       8.00000000  3.78021358E-09       2.00000000
  287       8.00000000  3.78021358E-09       2.00000000
  288       9.00000000  3.92601394E-09       2.00000000
  289       9.00000000  3.92601394E-09       2.00000000
  290       9.00000000  3.92601394E-09       2.00000000
  291       9.00000000  3.92601394E-09       2.00000000
  292       9.00000000  3.92601394E-09       2.00000000
  293       9.00000000  3.92601394E-09       2.00000000
  294       9.00000000  3.92601394E-09       2.00000000
  295       9.00000000  3.92601394E-09       2.00000000
  296      12.00000000  3.92601394E-09       2.00000000
  297      12.00000000  3.92601394E-09       2.00000000
  298      12.00000000  3.92601394E-09       2.00000000
  299      12.00000000  3.92601394E-09       2.00000000
  300       9.00000000  3.96914778E-09       2.00000000
  302       9.00000000  3.96914778E-09       2.00000000
  303       9.00000000  3.96914778E-09       2.00000000
  324       9.00000000  4.18587270E-09       2.00000000
  326       9.00000000  4.18587270E-09       2.00000000
  327       9.00000000  4.18587270E-09       2.00000000
  328       9.00000000  4.18587270E-09       2.00000000
  329       9.00000000  4.18587270E-09       2.00000000
  330       9.00000000  4.18587270E-09       2.00000000
  331      10.00000000  4.18587270E-09       2.00000000
  332      10.00000000  4.25859920E-09       2.00000000
  333      10.00000000  4.18587270E-09       2.00000000
  334      10.00000000  4.25859920E-09       2.00000000
  335       9.00000000  4.25859920E-09       2.00000000
  336       9.00000000  4.25859920E-09       2.00000000
  337       9.00000000  4.25859920E-09       2.00000000
  338       9.00000000  4.25859920E-09       2.00000000
  339       8.00000000  4.25859920E-09       2.00000000
  340       8.00000000  4.25859920E-09       2.00000000
  341       8.00000000  4.25859920E-09       2.00000000
  342       8.00000000  4.25859920E-09       2.00000000
  343       5.00000000  4.25859920E-09       2.00000000
  344       5.00000000  4.04451200E-09       2.00000000
  345       5.00000000  4.25859920E-09       2.00000000
  346       5.00000000  4.04451200E-09       2.00000000
  347       8.00000000  4.04451200E-09       2.00000000
  348       8.00000000  4.04451200E-09       2.00000000
  349       8.00000000  4.04451200E-09       2.00000000
  350       8.00000000  4.04451200E-09       2.00000000
  351       7.00000000  4.04451200E-09       2.00000000
  352       7.00000000  4.04451200E-09       2.00000000
  353       7.00000000  4.04451200E-09       2.00000000
  354       7.00000000  4.04451200E-09       2.00000000
  355       7.00000000  4.04451200E-09       2.00000000
  356       7.00000000  4.04451200E-09       2.00000000
  357       7.00000000  4.04451200E-09       2.00000000
  358       7.00000000  4.04451200E-09       2.00000000
  359       5.00000000  3.92212827E-09       2.00000000
  360       5.00000000  3.92212827E-09       2.00000000
  361       5.00000000  3.92212827E-09       2.00000000
  362       5.00000000  3.92212827E-09       2.00000000
  363       6.00000000  3.92212827E-09       2.00000000
  364       6.00000000  3.92212827E-09       2.00000000
  365       6.00000000  3.92212827E-09       2.00000000
  366       6.00000000  3.92212827E-09       2.00000000
  367       0.00000000  3.92212827E-09       2.00000000
  368       0.00000000  3.92212827E-09       2.00000000
  369       0.00000000  3.92212827E-09       2.00000000
  370       0.00000000  3.92212827E-09       2.00000000
  371       7.00000000  3.85550740E-09       2.00000000
  372       7.00000000  3.85550740E-09       2.00000000
  373       7.00000000  3.85550740E-09       2.00000000
  374       7.00000000  3.85550740E-09       2.00000000
  375       8.00000000  3.85550740E-09       2.00000000
  376       8.00000000  3.85550740E-09       2.00000000
  377       8.00000000  3.85550740E-09       2.00000000
  378       8.00000000  3.85550740E-09       2.00000000
  379       8.00000000  3.85550740E-09       2.00000000
  380       8.00000000  3.85550740E-09       2.00000000
  381       8.00000000  3.85550740E-09       2.00000000
  382       8.00000000  3.85550740E-09       2.00000000
  383       4.00000000  3.82250655E-09       2.00000000
  384       4.00000000  3.82250655E-09       2.00000000
  385       4.00000000  3.82250655E-09       2.00000000
  386       4.00000000  3.82250655E-09       2.00000000
  387       5.00000000  3.82250655E-09       2.00000000
  388       5.00000000  3.82250655E-09       2.00000000
  389       5.00000000  3.82250655E-09       2.00000000
  390       5.00000000  3.82250655E-09       2.00000000
  391       6.00000000  3.82250655E-09       2.00000000
  392       6.00000000  3.82250655E-09       2.00000000
  393       6.00000000  3.82250655E-09       2.00000000
  394       6.00000000  3.82250655E-09       2.00000000
  395       5.00000000  3.78021358E-09       2.00000000
  396       5.00000000  3.78021358E-09       2.00000000
  397       5.00000000  3.78021358E-09       2.00000000
  398       5.00000000  3.78021358E-09       2.00000000
  399      11.00000000  3.78021358E-09       2.00000000
  400      11.00000000  3.78021358E-09       2.00000000
  401      11.00000000  3.78021358E-09       2.00000000
  402      11.00000000  3.78021358E-09       2.00000000
  403      13.00000000  3.78021358E-09       2.00000000
  404      13.00000000  3.78021358E-09       2.00000000
  405      13.00000000  3.78021358E-09       2.00000000
  406      13.00000000  3.78021358E-09       2.00000000
  407      13.00000000  3.92601394E-09       2.00000000
  408      13.00000000  3.92601394E-09       2.00000000
  409      13.00000000  3.92601394E-09       2.00000000
  410      13.00000000  3.92601394E-09       2.00000000
  411      12.00000000  3.92601394E-09       2.00000000
  412      12.00000000  3.92601394E-09       2.00000000
  413      12.00000000  3.92601394E-09       2.00000000
  414      12.00000000  3.92601394E-09       2.00000000
  415      12.00000000  3.92601394E-09       2.00000000
  416      12.00000000  3.92601394E-09       2.00000000
  417      12.00000000  3.92601394E-09       2.00000000
  418      12.00000000  3.92601394E-09       2.00000000
  419       3.00000000  3.96914778E-09       2.00000000
  420       3.00000000  3.96914778E-09       2.00000000
  421       3.00000000  3.96914778E-09       2.00000000
  422       3.00000000  3.96914778E-09       2.00000000
  425      10.00000000  3.96914778E-09       2.00000000
  426      10.00000000  3.96914778E-09       2.00000000
  460       1.00000000  4.18587270E-09       2.00000000
  462       1.00000000  4.18587270E-09       2.00000000
  463       7.00000000  4.18587270E-09       2.00000000
  464       7.00000000  4.18587270E-09       2.00000000
  465       7.00000000  4.18587270E-09       2.00000000
  466       7.00000000  4.18587270E-09       2.00000000
  467       3.00000000  4.18587270E-09       2.00000000
  468       3.00000000  4.25859920E-09       2.00000000
  469       3.00000000  4.18587270E-09       2.00000000
  470       3.00000000  4.25859920E-09       2.00000000
  471       4.00000000  4.25859920E-09       2.00000000
  472       4.00000000  4.25859920E-09       2.00000000
  473       4.00000000  4.25859920E-09       2.00000000
  474       4.00000000  4.25859920E-09       2.00000000
  475       0.00000000  4.25859920E-09       2.00000000
  476       0.00000000  4.25859920E-09       2.00000000
  477       0.00000000  4.25859920E-09       2.00000000
  478       0.00000000  4.25859920E-09       2.00000000
  479       0.00000000  4.25859920E-09       2.00000000
  480       0.00000000  4.04451200E-09       2.00000000
  481       0.00000000  4.25859920E-09       2.00000000
  482       0.00000000  4.04451200E-09       2.00000000
  483       4.00000000  4.04451200E-09       2.00000000
  484       4.00000000  4.04451200E-09       2.00000000
  485       4.00000000  4.04451200E-09       2.00000000
  486       4.00000000  4.04451200E-09       2.00000000
  487       5.00000000  4.04451200E-09       2.00000000
  488       5.00000000  4.04451200E-09       2.00000000
  489       5.00000000  4.04451200E-09       2.00000000
  490       5.00000000  4.04451200E-09       2.00000000
  491       5.00000000  4.04451200E-09       2.00000000
  492       5.00000000  4.04451200E-09       2.00000000
  493       5.00000000  4.04451200E-09       2.00000000
  494       5.00000000  4.04451200E-09       2.00000000
  495       2.00000000  3.92212827E-09       2.00000000
  496       2.00000000  3.92212827E-09       2.00000000
  497       2.00000000  3.92212827E-09       2.00000000
  498       2.00000000  3.92212827E-09       2.00000000
  499       5.00000000  3.92212827E-09       2.00000000
  500       5.00000000  3.92212827E-09       2.00000000
  501       5.00000000  3.92212827E-09       2.00000000
  502       5.00000000  3.92212827E-09       2.00000000
  503       1.00000000  3.92212827E-09       2.00000000
  504       1.00000000  3.92212827E-09       2.00000000
  505       1.00000000  3.92212827E-09       2.00000000
  506       1.00000000  3.92212827E-09       2.00000000
  507       6.00000000  3.85550740E-09       2.00000000
  508       6.00000000  3.85550740E-09       2.00000000
  509       6.00000000  3.85550740E-09       2.00000000
  510       6.00000000  3.85550740E-09       2.00000000
  511       3.00000000  3.85550740E-09       2.00000000
  512       3.00000000  3.85550740E-09       2.00000000
  513       3.00000000  3.85550740E-09       2.00000000
  514       3.00000000  3.85550740E-09       2.00000000
  515       7.00000000  3.85550740E-09       2.00000000
  516       7.00000000  3.85550740E-09       2.00000000
  517       7.00000000  3.85550740E-09       2.00000000
  518       7.00000000  3.85550740E-09       2.00000000
  519       3.00000000  3.82250655E-09       2.00000000
  520       3.00000000  3.82250655E-09       2.00000000
  521       3.00000000  3.82250655E-09       2.00000000
  522       3.00000000  3.82250655E-09       2.00000000
  523       7.00000000  3.82250655E-09       2.00000000
  524       7.00000000  3.82250655E-09       2.00000000
  525       7.00000000  3.82250655E-09       2.00000000
  526       7.00000000  3.82250655E-09       2.00000000
  527       8.00000000  3.82250655E-09       2.00000000
  528       8.00000000  3.82250655E-09       2.00000000
  529       8.00000000  3.82250655E-09       2.00000000
  530       8.00000000  3.82250655E-09       2.00000000
  531       7.00000000  3.78021358E-09       2.00000000
  532       7.00000000  3.78021358E-09       2.00000000
  533       7.00000000  3.78021358E-09       2.00000000
  534       7.00000000  3.78021358E-09       2.00000000
  535      10.00000000  3.78021358E-09       2.00000000
  536      10.00000000  3.78021358E-09       2.00000000
  537      10.00000000  3.78021358E-09       2.00000000
  538      10.00000000  3.78021358E-09       2.00000000
  539      18.00000000  3.78021358E-09       2.00000000
  540      18.00000000  3.78021358E-09       2.00000000
  541      18.00000000  3.78021358E-09       2.00000000
  542      18.00000000  3.78021358E-09       2.00000000
  543      19.00000000  3.92601394E-09       2.00000000
  544      19.00000000  3.92601394E-09       2.00000000
  545      19.00000000  3.92601394E-09       2.00000000
  546      19.00000000  3.92601394E-09       2.00000000
  547      15.00000000  3.92601394E-09       2.00000000
  548      15.00000000  3.92601394E-09       2.00000000
  549      15.00000000  3.92601394E-09       2.00000000
  550      15.00000000  3.92601394E-09       2.00000000
  551      14.00000000  3.92601394E-09       2.00000000
  552      14.00000000  3.92601394E-09       2.00000000
  553      14.00000000  3.92601394E-09       2.00000000
  554      14.00000000  3.92601394E-09       2.00000000
  555      14.00000000  3.96914778E-09       2.00000000
  556      14.00000000  3.96914778E-09       2.00000000
  557      14.00000000  3.96914778E-09       2.00000000
  558      14.00000000  3.96914778E-09       2.00000000
  559      17.00000000  3.96914778E-09       2.00000000
  560      17.00000000  3.96914778E-09       2.00000000
  561      17.00000000  3.96914778E-09       2.00000000
  562      17.00000000  3.96914778E-09       2.00000000
  563      16.00000000  3.96914778E-09       2.00000000
  564      16.00000000  3.96914778E-09       2.00000000
  565      16.00000000  3.96914778E-09       2.00000000
  566      16.00000000  3.96914778E-09       2.00000000
  569      17.00000000  3.96914778E-09       2.00000000
  570      17.00000000  4.14388077E-09       2.00000000
  573      11.00000000  4.14388077E-09       2.00000000
  574      11.00000000  4.14388077E-09       2.00000000
  577      13.00000000  4.14388077E-09       2.00000000
  590       6.00000000  4.39120424E-09       2.00000000
  593       7.00000000  4.39120424E-09       2.00000000
  603      -3.00000000  4.26248380E-09       2.00000000
  604      -3.00000000  3.94130281E-09       2.00000000
  605       2.00000000  4.18587270E-09       2.00000000
  606       2.00000000  4.18587270E-09       2.00000000
  607       2.00000000  3.94130281E-09       2.00000000
  608       2.00000000  3.94130281E-09       2.00000000
  609       7.00000000  4.18587270E-09       2.00000000
  610       7.00000000  4.18587270E-09       2.00000000
  611       7.00000000  3.94130281E-09       2.00000000
  612       7.00000000  3.94130281E-09       2.00000000
  613       6.00000000  4.18587270E-09       2.00000000
  614       6.00000000  4.25859920E-09       2.00000000
  615       6.00000000  3.94130281E-09       2.00000000
  616       6.00000000  3.84952680E-09       2.00000000
  617       9.00000000  4.25859920E-09       2.00000000
  618       9.00000000  4.25859920E-09       2.00000000
  619       9.00000000  3.84952680E-09       2.00000000
  620       9.00000000  3.84952680E-09       2.00000000
  621      -1.00000000  4.25859920E-09       2.00000000
  622      -1.00000000  4.25859920E-09       2.00000000
  623      -1.00000000  3.84952680E-09       2.00000000
  624      -1.00000000  3.84952680E-09       2.00000000
  625       1.00000000  4.25859920E-09       2.00000000
  626       1.00000000  4.04451200E-09       2.00000000
  627       1.00000000  3.84952680E-09       2.00000000
  628       1.00000000  3.78158929E-09       2.00000000
  629       3.00000000  4.04451200E-09       2.00000000
  630       3.00000000  4.04451200E-09       2.00000000
  631       3.00000000  3.78158929E-09       2.00000000
  632       3.00000000  3.78158929E-09       2.00000000
  633       4.00000000  4.04451200E-09       2.00000000
  634       4.00000000  4.04451200E-09       2.00000000
  635       4.00000000  3.78158929E-09       2.00000000
  636       4.00000000  3.78158929E-09       2.00000000
  637       5.00000000  4.04451200E-09       2.00000000
  638       5.00000000  4.04451200E-09       2.00000000
  639       5.00000000  3.78158929E-09       2.00000000
  640       5.00000000  3.78158929E-09       2.00000000
  641       4.00000000  3.92212827E-09       2.00000000
  642       4.00000000  3.92212827E-09       2.00000000
  643       4.00000000  3.69603494E-09       2.00000000
  644       4.00000000  3.69603494E-09       2.00000000
  645       4.00000000  3.92212827E-09       2.00000000
  646       4.00000000  3.92212827E-09       2.00000000
  647       4.00000000  3.69603494E-09       2.00000000
  648       4.00000000  3.69603494E-09       2.00000000
  649       6.00000000  3.92212827E-09       2.00000000
  650       6.00000000  3.92212827E-09       2.00000000
  651       6.00000000  3.69603494E-09       2.00000000
  652       6.00000000  3.69603494E-09       2.00000000
  653       8.00000000  3.85550740E-09       2.00000000
  654       8.00000000  3.85550740E-09       2.00000000
  655       8.00000000  3.59695531E-09       2.00000000
  656       8.00000000  3.59695531E-09       2.00000000
  657       4.00000000  3.85550740E-09       2.00000000
  658       4.00000000  3.85550740E-09       2.00000000
  659       4.00000000  3.85550740E-09       2.00000000
  660       4.00000000  3.85550740E-09       2.00000000
  661      15.00000000  3.85550740E-09       2.00000000
  662      15.00000000  3.85550740E-09       2.00000000
  663      15.00000000  3.85550740E-09       2.00000000
  664      15.00000000  3.85550740E-09       2.00000000
  665       5.00000000  3.82250655E-09       2.00000000
  666       5.00000000  3.82250655E-09       2.00000000
  667       5.00000000  3.82250655E-09       2.00000000
  668       5.00000000  3.82250655E-09       2.00000000
  669       9.00000000  3.82250655E-09       2.00000000
  670       9.00000000  3.82250655E-09       2.00000000
  671       9.00000000  3.82250655E-09       2.00000000
  672       9.00000000  3.82250655E-09       2.00000000
  673       7.00000000  3.82250655E-09       2.00000000
  674       7.00000000  3.82250655E-09       2.00000000
  675       7.00000000  3.82250655E-09       2.00000000
  676       7.00000000  3.82250655E-09       2.00000000
  677      10.00000000  3.78021358E-09       2.00000000
  678      10.00000000  3.78021358E-09       2.00000000
  679      10.00000000  3.78021358E-09       2.00000000
  680      10.00000000  3.78021358E-09       2.00000000
  681      19.00000000  3.78021358E-09       2.00000000
  682      19.00000000  3.78021358E-09       2.00000000
  683      19.00000000  3.78021358E-09       2.00000000
  684      19.00000000  3.78021358E-09       2.00000000
  685      19.00000000  3.78021358E-09       2.00000000
  686      19.00000000  3.78021358E-09       2.00000000
  687      19.00000000  3.78021358E-09       2.00000000
  688      19.00000000  3.78021358E-09       2.00000000
  689      26.00000000  3.92601394E-09       2.00000000
  690      26.00000000  3.92601394E-09       2.00000000
  691      26.00000000  3.92601394E-09       2.00000000
  692      26.00000000  3.92601394E-09       2.00000000
  693      20.00000000  3.92601394E-09       2.00000000
  694      20.00000000  3.92601394E-09       2.00000000
  695      20.00000000  3.92601394E-09       2.00000000
  696      20.00000000  3.92601394E-09       2.00000000
  697      20.00000000  3.92601394E-09       2.00000000
  698      20.00000000  3.92601394E-09       2.00000000
  699      20.00000000  3.92601394E-09       2.00000000
  700      20.00000000  3.92601394E-09       2.00000000
  701      21.00000000  3.96914778E-09       2.00000000
  702      21.00000000  3.96914778E-09       2.00000000
  703      21.00000000  3.96914778E-09       2.00000000
  704      21.00000000  3.96914778E-09       2.00000000
  705      19.00000000  3.96914778E-09       2.00000000
  706      19.00000000  3.96914778E-09       2.00000000
  707      19.00000000  3.96914778E-09       2.00000000
  708      19.00000000  3.96914778E-09       2.00000000
  709      20.00000000  3.96914778E-09       2.00000000
  710      20.00000000  3.96914778E-09       2.00000000
  711      20.00000000  3.96914778E-09       2.00000000
  712      20.00000000  3.96914778E-09       2.00000000
  713      19.00000000  3.96914778E-09       2.00000000
  714      19.00000000  4.14388077E-09       2.00000000
  715      19.00000000  3.96914778E-09       2.00000000
  716      19.00000000  4.14388077E-09       2.00000000
  717       5.00000000  4.14388077E-09       2.00000000
  718       5.00000000  4.14388077E-09       2.00000000
  719       5.00000000  4.14388077E-09       2.00000000
  720       5.00000000  4.14388077E-09       2.00000000
  721       9.00000000  4.14388077E-09       2.00000000
  722       9.00000000  4.14388077E-09       2.00000000
  723       9.00000000  4.14388077E-09       2.00000000
  724       9.00000000  4.14388077E-09       2.00000000
  725       7.00000000  4.14388077E-09       2.00000000
  726       7.00000000  4.39120424E-09       2.00000000
  727       7.00000000  4.14388077E-09       2.00000000
  728       7.00000000  4.39120424E-09       2.00000000
  729       6.00000000  4.39120424E-09       2.00000000
  730       6.00000000  4.39120424E-09       2.00000000
  731       6.00000000  4.39120424E-09       2.00000000
  732       6.00000000  4.39120424E-09       2.00000000
  733       7.00000000  4.39120424E-09       2.00000000
  734       7.00000000  4.39120424E-09       2.00000000
  735       7.00000000  4.39120424E-09       2.00000000
  736       7.00000000  4.39120424E-09       2.00000000
  737       9.00000000  4.39120424E-09       2.00000000
  738       9.00000000  4.51815516E-09       2.00000000
  739       9.00000000  4.39120424E-09       2.00000000
  740       9.00000000  4.51815516E-09       2.00000000
  753      -1.00000000  4.26248380E-09       2.00000000
  754      -1.00000000  4.26248380E-09       2.00000000
  755      -1.00000000  4.26248380E-09       2.00000000
  756       1.00000000  4.26248380E-09       2.00000000
  757       1.00000000  3.94130281E-09       2.00000000
  758       1.00000000  4.26248380E-09       2.00000000
  759       1.00000000  3.94130281E-09       2.00000000
  760       1.00000000  3.94130281E-09       2.00000000
  761       1.00000000  3.94130281E-09       2.00000000
  762       1.00000000  3.94130281E-09       2.00000000
  763       1.00000000  3.94130281E-09       2.00000000
  764       7.00000000  3.94130281E-09       2.00000000
  765       7.00000000  3.94130281E-09       2.00000000
  766       7.00000000  3.94130281E-09       2.00000000
  767       7.00000000  3.94130281E-09       2.00000000
  768       8.00000000  3.94130281E-09       2.00000000
  769       8.00000000  3.84952680E-09       2.00000000
  770       8.00000000  3.94130281E-09       2.00000000
  771       8.00000000  3.84952680E-09       2.00000000
  772      11.00000000  3.84952680E-09       2.00000000
  773      11.00000000  3.84952680E-09       2.00000000
  774      11.00000000  3.84952680E-09       2.00000000
  775      11.00000000  3.84952680E-09       2.00000000
  776       9.00000000  3.84952680E-09       2.00000000
  777       9.00000000  3.84952680E-09       2.00000000
  778       9.00000000  3.84952680E-09       2.00000000
  779       9.00000000  3.84952680E-09       2.00000000
  780       4.00000000  3.84952680E-09       2.00000000
  781       4.00000000  3.78158929E-09       2.00000000
  782       4.00000000  3.84952680E-09       2.00000000
  783       4.00000000  3.78158929E-09       2.00000000
  784       3.00000000  3.78158929E-09       2.00000000
  785       3.00000000  3.78158929E-09       2.00000000
  786       3.00000000  3.78158929E-09       2.00000000
  787       3.00000000  3.78158929E-09       2.00000000
  788       3.00000000  3.78158929E-09       2.00000000
  789       3.00000000  3.78158929E-09       2.00000000
  790       3.00000000  3.78158929E-09       2.00000000
  791       3.00000000  3.78158929E-09       2.00000000
  792       2.00000000  3.78158929E-09       2.00000000
  793       2.00000000  3.78158929E-09       2.00000000
  794       2.00000000  3.78158929E-09       2.00000000
  795       2.00000000  3.78158929E-09       2.00000000
  796       7.00000000  3.69603494E-09       2.00000000
  797       7.00000000  3.69603494E-09       2.00000000
  798       7.00000000  3.69603494E-09       2.00000000
  799       7.00000000  3.69603494E-09       2.00000000
  800       5.00000000  3.69603494E-09       2.00000000
  801       5.00000000  3.69603494E-09       2.00000000
  802       5.00000000  3.69603494E-09       2.00000000
  803       5.00000000  3.69603494E-09       2.00000000
  804       7.00000000  3.69603494E-09       2.00000000
  805       7.00000000  3.69603494E-09       2.00000000
  806       7.00000000  3.69603494E-09       2.00000000
  807       7.00000000  3.69603494E-09       2.00000000
  808      19.00000000  3.59695531E-09       2.00000000
  809      19.00000000  3.59695531E-09       2.00000000
  810      19.00000000  3.59695531E-09       2.00000000
  811      19.00000000  3.59695531E-09       2.00000000
  812      11.00000000  3.59695531E-09       2.00000000
  813      11.00000000  3.59695531E-09       2.00000000
  814      11.00000000  3.59695531E-09       2.00000000
  815      11.00000000  3.59695531E-09       2.00000000
  816       7.00000000  3.59695531E-09       2.00000000
  817       7.00000000  3.59695531E-09       2.00000000
  818       7.00000000  3.59695531E-09       2.00000000
  819       7.00000000  3.59695531E-09       2.00000000
  820      10.00000000  3.50059912E-09       2.00000000