# File generated by Flopy version 3.9.1 on 01/21/2026 at 05:23:46.
BEGIN options
  SAVE_FLOWS
END options

BEGIN packages
  DISU6  DISU_model.disu  disu
  IC6  DISU_model.ic  ic
  CHD6  DISU_model.chd  chd
  NPF6  DISU_model.npf  npf
  WEL6  DISU_model.wel  well_casea
  RCH6  quadtree_caseA.rch  rch
  EVT6  DISU_model.evt  evt
  OC6  DISU_model.oc  oc
END packages

