# File generated by Flopy version 3.9.1 on 02/10/2026 at 22:14:50.
BEGIN options
  FIXED_CELL
  PRINT_FLOWS
  SAVE_FLOWS
END options

BEGIN dimensions
  MAXBOUND  29071
END dimensions

BEGIN period  1
  1 1 1.29299411E-08
  1 2 1.29336542E-08
  1 3 1.29964383E-08
  1 4 1.32176826E-08
  1 5 1.35643839E-08
  1 6 1.37399690E-08
  1 7 1.39543382E-08
  1 8 1.41295755E-08
  1 9 1.42778122E-08
  1 10 1.43572101E-08
  1 11 1.42148211E-08
  1 12 1.39886374E-08
  1 13 1.35588842E-08
  1 14 1.34125172E-08
  1 15 1.33972306E-08
  1 16 1.33973322E-08
  1 17 1.33952279E-08
  1 18 1.33954493E-08
  1 19 1.33941519E-08
  1 20 1.33947735E-08
  1 21 1.33959693E-08
  1 22 1.33976472E-08
  1 23 1.33993276E-08
  1 24 1.33983777E-08
  1 25 1.33968387E-08
  1 26 1.33962386E-08
  1 27 1.33968107E-08
  1 28 1.33983772E-08
  1 29 1.33968870E-08
  1 30 1.34013885E-08
  1 31 1.35084288E-08
  1 32 1.40318037E-08
  1 33 1.42658170E-08
  1 34 1.43789399E-08
  1 35 1.74500820E-08
  1 36 1.73447562E-08
  1 37 1.76935844E-08
  1 38 1.76690517E-08
  1 39 1.76578150E-08
  1 40 1.76687952E-08
  1 41 1.76620418E-08
  1 42 1.76668284E-08
  1 43 1.78150308E-08
  1 44 1.78293669E-08
  1 45 1.77908131E-08
  1 46 1.77895643E-08
  1 47 1.78296776E-08
  1 48 1.78614477E-08
  1 49 1.78706578E-08
  1 50 1.76601516E-08
  1 51 1.77580987E-08
  1 52 1.78104435E-08
  1 53 1.78393616E-08
  1 54 1.78432129E-08
  1 55 1.78555483E-08
  1 56 1.78314826E-08
  1 57 1.78083876E-08
  1 58 1.78162359E-08
  1 59 1.78013435E-08
  1 60 1.78368547E-08
  1 61 1.76067787E-08
  1 62 1.76165619E-08
  1 63 1.75259026E-08
  1 64 1.74370298E-08
  1 65 1.74205180E-08
  1 66 1.74123320E-08
  1 67 1.73988364E-08
  1 68 1.73592840E-08
  1 69 1.73607152E-08
  1 70 1.73566425E-08
  1 71 1.73483489E-08
  1 72 1.73466075E-08
  1 73 1.73460457E-08
  1 74 1.73336634E-08
  1 75 1.73179733E-08
  1 76 1.72781604E-08
  1 77 1.71302667E-08
  1 78 1.71283021E-08
  1 79 1.71650754E-08
  1 80 1.71670332E-08
  1 81 1.71610280E-08
  1 82 1.71712067E-08
  1 83 1.71702975E-08
  1 84 1.71754317E-08
  1 85 1.71178689E-08
  1 86 1.71198985E-08
  1 87 1.71804937E-08
  1 88 1.71950241E-08
  1 89 1.71943742E-08
  1 90 1.71901522E-08
  1 91 1.71928924E-08
  1 92 1.71998307E-08
  1 93 1.72014683E-08
  1 94 1.72201867E-08
  1 95 1.72197637E-08
  1 96 1.72396080E-08
  1 97 1.71887150E-08
  1 98 1.72113869E-08
  1 99 1.72113258E-08
  1 100 1.72214975E-08
  1 101 1.72238360E-08
  1 102 1.72196469E-08
  1 103 1.72388708E-08
  1 104 1.72395222E-08
  1 105 1.72099686E-08
  1 106 1.72326881E-08
  1 107 1.72266710E-08
  1 108 1.72403565E-08
  1 109 1.72340227E-08
  1 110 1.72243380E-08
  1 111 1.72156439E-08
  1 112 1.72241430E-08
  1 113 1.72140717E-08
  1 114 1.72178126E-08
  1 115 1.71950458E-08
  1 116 1.71981546E-08
  1 117 1.71982895E-08
  1 118 1.72089783E-08
  1 119 1.72136924E-08
  1 120 1.72207171E-08
  1 121 1.72248334E-08
  1 122 1.72455044E-08
  1 123 1.72407342E-08
  1 124 1.72297195E-08
  1 125 1.72215196E-08
  1 126 1.71702438E-08
  1 127 1.71531208E-08
  1 128 1.71750354E-08
  1 129 1.71658016E-08
  1 130 1.73116110E-08
  1 131 1.72199031E-08
  1 132 1.72302226E-08
  1 133 1.72149893E-08
  1 134 1.72435278E-08
  1 135 1.71796839E-08
  1 136 1.70875191E-08
  1 137 1.70665767E-08
  1 138 1.70519447E-08
  1 139 1.69883030E-08
  1 140 1.69472099E-08
  1 141 1.68790115E-08
  1 142 1.68805788E-08
  1 143 1.67964620E-08
  1 144 1.67614154E-08
  1 145 1.68827183E-08
  1 146 1.68212493E-08
  1 147 1.68650254E-08
  1 148 1.68020788E-08
  1 149 1.67518239E-08
  1 150 1.66833919E-08
  1 151 1.66480018E-08
  1 152 1.65729706E-08
  1 153 1.64475951E-08
  1 154 1.63544666E-08
  1 155 1.61341656E-08
  1 156 1.62756753E-08
  1 157 1.62759269E-08
  1 158 1.63636398E-08
  1 159 1.63100577E-08
  1 160 1.61959897E-08
  1 161 1.61483363E-08
  1 162 1.60090858E-08
  1 163 1.60159267E-08
  1 164 1.58150090E-08
  1 165 1.58833380E-08
  1 166 1.59478789E-08
  1 167 1.59720415E-08
  1 168 1.58903737E-08
  1 169 1.58251597E-08
  1 170 1.56990268E-08
  1 171 1.57183758E-08
  1 172 1.56414884E-08
  1 173 1.57138134E-08
  1 174 1.57586860E-08
  1 175 1.55409162E-08
  1 176 1.55228709E-08
  1 177 1.55833893E-08
  1 178 1.56009801E-08
  1 179 1.56389434E-08
  1 180 1.55893611E-08
  1 181 1.55776841E-08
  1 182 1.56648833E-08
  1 183 1.57405255E-08
  1 184 1.61069462E-08
  1 185 1.60912039E-08
  1 186 1.62130698E-08
  1 187 1.64360452E-08
  1 188 1.64421088E-08
  1 189 1.65264951E-08
  1 190 1.65259585E-08
  1 191 1.68453700E-08
  1 192 1.63345001E-08
  1 193 1.63439765E-08
  1 194 1.64178325E-08
  1 195 1.64214960E-08
  1 196 1.64351677E-08
  1 197 1.64544133E-08
  1 198 1.63727727E-08
  1 199 1.62668676E-08
  1 200 1.62813730E-08
  1 201 1.62030936E-08
  1 202 1.62141160E-08
  1 203 1.61690695E-08
  1 204 1.61408879E-08
  1 205 1.82492077E-08
  1 206 1.83449709E-08
  1 207 1.94679337E-08
  1 208 2.01079670E-08
  1 209 2.06956966E-08
  1 210 2.07556906E-08
  1 211 2.08123200E-08
  1 212 2.07028242E-08
  1 213 2.06279325E-08
  1 214 2.05587452E-08
  1 215 2.05188903E-08
  1 216 2.05711821E-08
  1 217 2.02443691E-08
  1 218 1.96418261E-08
  1 219 1.98948751E-08
  1 220 1.94314450E-08
  1 221 1.94755856E-08
  1 222 1.95284873E-08
  1 223 1.95736693E-08
  1 224 1.96683568E-08
  1 225 1.96398630E-08
  1 226 1.94681128E-08
  1 227 1.94805455E-08
  1 228 1.93424697E-08
  1 229 1.88874968E-08
  1 230 1.84793728E-08
  1 231 1.81952564E-08
  1 232 1.79196436E-08
  1 233 1.77209842E-08
  1 234 1.78399581E-08
  1 235 1.64850137E-08
  1 236 1.59538693E-08
  1 237 1.58143434E-08
  1 238 1.53840793E-08
  1 239 1.53243735E-08
  1 240 1.53027749E-08
  1 241 1.51311544E-08
  1 242 1.49050028E-08
  1 243 1.50522294E-08
  1 244 1.50706101E-08
  1 245 1.42327712E-08
  1 246 1.43921209E-08
  1 247 1.42816025E-08
  1 248 1.42791096E-08
  1 249 1.42252817E-08
  1 250 1.42158212E-08
  1 251 1.42077685E-08
  1 252 1.42074704E-08
  1 253 1.42075943E-08
  1 254 1.41977268E-08
  1 255 1.41621054E-08
  1 256 1.41243819E-08
  1 257 1.37826098E-08
  1 258 1.37458258E-08
  1 259 1.33846449E-08
  1 260 1.32604089E-08
  1 261 1.31981271E-08
  1 262 1.31007774E-08
  1 263 1.29994039E-08
  1 264 1.29235299E-08
  1 265 1.28672052E-08
  1 266 1.26359257E-08
  1 267 1.25845039E-08
  1 268 1.24598935E-08
  1 269 1.22963499E-08
  1 270 1.18240041E-08
  1 271 1.16880079E-08
  1 272 1.14616725E-08
  1 273 1.13340596E-08
  1 274 1.07436895E-08
  1 275 1.05172033E-08
  1 276 1.04347558E-08
  1 277 1.01948801E-08
  1 278 1.00002437E-08
  1 279 9.96949951E-09
  1 280 9.96579612E-09
  1 281 9.96676522E-09
  1 282 9.96215679E-09
  1 283 9.96158648E-09
  1 284 9.95677612E-09
  1 285 9.95515157E-09
  1 286 9.95330725E-09
  1 287 9.94921808E-09
  1 288 9.94830588E-09
  1 289 9.94661050E-09
  1 290 9.94051033E-09
  1 291 9.96035866E-09
  1 292 9.96452440E-09
  1 293 9.91908342E-09
  1 294 9.90260021E-09
  1 295 9.89886611E-09
  1 296 9.90006268E-09
  1 297 9.89887234E-09
  1 298 9.89867372E-09
  1 299 9.95408519E-09
  1 300 1.01943295E-08
  1 301 1.05381944E-08
  1 302 1.11348978E-08
  1 303 1.15409220E-08
  1 304 1.17783583E-08
  1 305 1.18487568E-08
  1 306 1.18764950E-08
  1 307 1.19343978E-08
  1 308 1.19343624E-08
  1 309 1.19729499E-08
  1 310 1.21010985E-08
  1 311 1.21011412E-08
  1 312 1.20897249E-08
  1 313 1.20827956E-08
  1 314 1.20769547E-08
  1 315 1.20708228E-08
  1 316 1.20113596E-08
  1 317 1.19293701E-08
  1 318 1.19202846E-08
  1 319 1.19289333E-08
  1 320 1.18425000E-08
  1 321 1.15154851E-08
  1 322 1.14749766E-08
  1 323 1.12839498E-08
  1 324 1.11797991E-08
  1 325 1.07167069E-08
  1 326 1.05596367E-08
  1 327 1.00422006E-08
  1 328 1.00223412E-08
  1 329 9.84186934E-09
  1 330 9.82502746E-09
  1 331 9.80049785E-09
  1 332 9.80955248E-09
  1 333 9.79845851E-09
  1 334 9.74333849E-09
  1 335 9.73870520E-09
  1 336 9.78679523E-09
  1 337 9.72733372E-09
  1 338 9.72226001E-09
  1 339 9.57656090E-09
  1 340 9.32258239E-09
  1 341 9.10792330E-09
  1 342 9.10464471E-09
  1 343 9.14495711E-09
  1 344 9.10380901E-09
  1 345 9.10172844E-09
  1 346 9.41553072E-09
  1 347 9.52267239E-09
  1 348 9.80509066E-09
  1 349 9.88408636E-09
  1 350 9.91136624E-09
  1 351 9.96480995E-09
  1 352 9.99830371E-09
  1 353 1.00067478E-08
  1 354 9.98761061E-09
  1 355 9.99679894E-09
  1 356 1.00045659E-08
  1 357 1.00239349E-08
  1 358 1.00446551E-08
  1 359 1.00219794E-08
  1 360 1.00592984E-08
  1 361 1.00724146E-08
  1 362 1.00986892E-08
  1 363 1.00893330E-08
  1 364 1.01255605E-08
  1 365 1.01774289E-08
  1 366 1.01721504E-08
  1 367 1.01824242E-08
  1 368 1.01818400E-08
  1 369 1.01334700E-08
  1 370 1.01006446E-08
  1 371 1.00881477E-08
  1 372 1.00682244E-08
  1 373 9.10131979E-09
  1 374 9.12500091E-09
  1 375 9.41624473E-09
  1 376 9.41707017E-09
  1 377 9.42076818E-09
  1 378 9.41713585E-09
  1 379 9.42191645E-09
  1 380 9.81638649E-09
  1 381 1.01783955E-08
  1 382 1.03661124E-08
  1 383 1.14979577E-08
  1 384 1.17344955E-08
  1 385 1.22387707E-08
  1 386 1.20495537E-08
  1 387 1.17304817E-08
  1 388 8.47741860E-09
  1 389 8.31397187E-09
  1 390 8.31745843E-09
  1 391 7.91833010E-09
  1 392 7.47605666E-09
  1 393 7.34858755E-09
  1 394 7.36018655E-09
  1 395 7.35077002E-09
  1 396 7.36654349E-09
  1 397 8.98375144E-09
  1 398 9.54585952E-09
  1 399 1.01668813E-08
  1 400 1.09129627E-08
  1 401 1.17723371E-08
  1 402 1.18377492E-08
  1 403 1.18189047E-08
  1 404 1.18419304E-08
  1 405 1.18504342E-08
  1 406 1.19779355E-08
  1 407 1.18746089E-08
  1 408 1.18416682E-08
  1 409 1.19031962E-08
  1 410 1.20217176E-08
  1 411 1.27011563E-08
  1 412 1.29341882E-08
  1 413 1.29404044E-08
  1 414 1.29280093E-08
  1 415 1.30237929E-08
  1 416 1.30074478E-08
  1 417 1.30082956E-08
  1 418 1.28202060E-08
  1 419 1.22841230E-08
  1 420 1.15089345E-08
  1 421 1.15442506E-08
  1 422 1.14512814E-08
  1 423 1.09147025E-08
  1 424 1.05762666E-08
  1 425 9.82822892E-09
  1 426 7.96886264E-09
  1 427 7.65778970E-09
  1 428 7.33139879E-09
  1 429 7.33224998E-09
  1 430 7.32831311E-09
  1 431 7.34509112E-09
  1 432 7.36786705E-09
  1 433 7.41849575E-09
  1 434 7.43256974E-09
  1 435 7.41774971E-09
  1 436 7.44101701E-09
  1 437 7.43698190E-09
  1 438 7.48980072E-09
  1 439 7.68061168E-09
  1 440 8.02394485E-09
  1 441 8.48085403E-09
  1 442 8.81592329E-09
  1 443 8.83411895E-09
  1 444 8.85607016E-09
  1 445 8.89805695E-09
  1 446 8.91672039E-09
  1 447 8.87304571E-09
  1 448 8.89945902E-09
  1 449 9.47526383E-09
  1 450 9.65201612E-09
  1 451 9.83138522E-09
  1 452 1.00452413E-08
  1 453 1.02243834E-08
  1 454 1.03886642E-08
  1 455 1.07241675E-08
  1 456 1.07220648E-08
  1 457 1.06926360E-08
  1 458 1.06535378E-08
  1 459 1.06161391E-08
  1 460 1.06359589E-08
  1 461 1.06209158E-08
  1 462 1.06353846E-08
  1 463 1.05456444E-08
  1 464 1.05647532E-08
  1 465 1.04441833E-08
  1 466 1.07000696E-08
  1 467 1.14653282E-08
  1 468 1.19708950E-08
  1 469 1.23718639E-08
  1 470 1.29004833E-08
  1 471 1.29238239E-08
  1 472 1.29826845E-08
  1 473 1.30245382E-08
  1 474 1.30198581E-08
  1 475 1.30038679E-08
  1 476 1.30013833E-08
  1 477 1.30518920E-08
  1 478 1.32340497E-08
  1 479 1.32915490E-08
  1 480 1.32960979E-08
  1 481 1.33274795E-08
  1 482 1.33660206E-08
  1 483 1.33717717E-08
  1 484 1.33699373E-08
  1 485 1.33890272E-08
  1 486 1.33969973E-08
  1 487 1.34365832E-08
  1 488 1.38650072E-08
  1 489 1.38858479E-08
  1 490 1.38896745E-08
  1 491 1.38914579E-08
  1 492 1.38993830E-08
  1 493 1.39068598E-08
  1 494 1.39093123E-08
  1 495 1.39155298E-08
  1 496 1.39213994E-08
  1 497 1.39287760E-08
  1 498 1.39295148E-08
  1 499 1.39324281E-08
  1 500 1.39418957E-08
  1 501 1.39452929E-08
  1 502 1.39527925E-08
  1 503 1.39789725E-08
  1 504 1.39885968E-08
  1 505 1.39989115E-08
  1 506 1.40105670E-08
  1 507 1.40161471E-08
  1 508 1.40259197E-08
  1 509 1.40348250E-08
  1 510 1.40407232E-08
  1 511 1.40394541E-08
  1 512 1.40372576E-08
  1 513 1.40337683E-08
  1 514 1.40284618E-08
  1 515 1.40236990E-08
  1 516 1.40032122E-08
  1 517 1.39524581E-08
  1 518 1.39144920E-08
  1 519 1.39011330E-08
  1 520 1.38730547E-08
  1 521 1.38620118E-08
  1 522 1.38336811E-08
  1 523 1.38417822E-08
  1 524 1.38378574E-08
  1 525 1.38337771E-08
  1 526 1.38246307E-08
  1 527 1.38113250E-08
  1 528 1.37971530E-08
  1 529 1.37970298E-08
  1 530 1.38083999E-08
  1 531 1.37529737E-08
  1 532 1.37603913E-08
  1 533 1.37540471E-08
  1 534 1.37591684E-08
  1 535 1.37494517E-08
  1 536 1.37415342E-08
  1 537 1.37321735E-08
  1 538 1.37160582E-08
  1 539 1.37033335E-08
  1 540 1.36815795E-08
  1 541 1.36486794E-08
  1 542 1.36593654E-08
  1 543 1.36502323E-08
  1 544 1.36467320E-08
  1 545 1.36257395E-08
  1 546 1.36039924E-08
  1 547 1.36065868E-08
  1 548 1.35860892E-08
  1 549 1.35703820E-08
  1 550 1.35646005E-08
  1 551 1.35572838E-08
  1 552 1.35470688E-08
  1 553 1.35368355E-08
  1 554 1.34969016E-08
  1 555 1.34737803E-08
  1 556 1.34585451E-08
  1 557 1.34585749E-08
  1 558 1.34464156E-08
  1 559 1.34425014E-08
  1 560 1.34344570E-08
  1 561 1.34156097E-08
  1 562 1.33744542E-08
  1 563 1.33746912E-08
  1 564 1.33560677E-08
  1 565 1.33495728E-08
  1 566 1.33237954E-08
  1 567 1.32933920E-08
  1 568 1.32439943E-08
  1 569 1.32476407E-08
  1 570 1.32198103E-08
  1 571 1.31616101E-08
  1 572 1.31330269E-08
  1 573 1.31449564E-08
  1 574 1.31262895E-08
  1 575 1.31387628E-08
  1 576 1.31120925E-08
  1 577 1.30959258E-08
  1 578 1.30963664E-08
  1 579 1.30856255E-08
  1 580 1.30631879E-08
  1 581 1.30303815E-08
  1 582 1.30005817E-08
  1 583 1.29865744E-08
  1 584 1.29709717E-08
  1 585 1.29772643E-08
  1 586 1.29240922E-08
  1 587 1.29174676E-08
  1 588 1.28880493E-08
  1 589 1.28336302E-08
  1 590 1.28303766E-08
  1 591 1.28105627E-08
  1 592 1.27822303E-08
  1 593 1.27506263E-08
  1 594 1.27299464E-08
  1 595 1.26461903E-08
  1 596 1.26498035E-08
  1 597 1.26171655E-08
  1 598 1.25649313E-08
  1 599 1.25463614E-08
  1 600 1.24525350E-08
  1 601 1.24281565E-08
  1 602 1.23735225E-08
  1 603 1.23501793E-08
  1 604 1.23178751E-08
  1 605 1.22891791E-08
  1 606 1.22579147E-08
  1 607 1.22131411E-08
  1 608 1.21961917E-08
  1 609 1.21215558E-08
  1 610 1.21358524E-08
  1 611 1.20717455E-08
  1 612 1.20549290E-08
  1 613 1.20041412E-08
  1 614 1.18924775E-08
  1 615 1.19312491E-08
  1 616 1.19468525E-08
  1 617 1.16820174E-08
  1 618 1.16519191E-08
  1 619 1.16297086E-08
  1 620 1.16347334E-08
  1 621 1.15962434E-08
  1 622 1.14756174E-08
  1 623 1.09051906E-08
  1 624 1.06084798E-08
  1 625 1.02837385E-08
  1 626 1.02335018E-08
  1 627 1.02289265E-08
  1 628 1.02493319E-08
  1 629 1.02238865E-08
  1 630 1.02192988E-08
  1 631 1.02389053E-08
  1 632 1.03094017E-08
  1 633 1.02313402E-08
  1 634 1.02096039E-08
  1 635 1.02435675E-08
  1 636 1.03126623E-08
  1 637 1.04432112E-08
  1 638 1.06195203E-08
  1 639 1.12088368E-08
  1 640 1.22890411E-08
  1 641 1.29326755E-08
  1 642 1.29050786E-08
  1 643 1.44308576E-08
  1 644 1.44272693E-08
  1 645 1.44228933E-08
  1 646 1.44185324E-08
  1 647 1.44126336E-08
  1 648 1.44032165E-08
  1 649 1.43933788E-08
  1 650 1.43913724E-08
  1 651 1.43906130E-08
  1 652 1.43859022E-08
  1 653 1.43859478E-08
  1 654 1.43819702E-08
  1 655 1.43761990E-08
  1 656 1.43640596E-08
  1 657 1.43609971E-08
  1 658 1.43584679E-08
  1 659 1.43548614E-08
  1 660 1.43463294E-08
  1 661 1.43437531E-08
  1 662 1.43319897E-08
  1 663 1.43276281E-08
  1 664 1.43223070E-08
  1 665 1.43160903E-08
  1 666 1.43153799E-08
  1 667 1.43057236E-08
  1 668 1.42982872E-08
  1 669 1.42961320E-08
  1 670 1.42902584E-08
  1 671 1.42864085E-08
  1 672 1.42812229E-08
  1 673 1.42778089E-08
  1 674 1.42775535E-08
  1 675 1.42681515E-08
  1 676 1.42512024E-08
  1 677 1.42509045E-08
  1 678 1.42481795E-08
  1 679 1.42480019E-08
  1 680 1.42469869E-08
  1 681 1.42413731E-08
  1 682 1.42298353E-08
  1 683 1.42269352E-08
  1 684 1.42242696E-08
  1 685 1.42224261E-08
  1 686 1.42120949E-08
  1 687 1.42105989E-08
  1 688 1.42104455E-08
  1 689 1.42029950E-08
  1 690 1.42008981E-08
  1 691 1.41991183E-08
  1 692 1.41958603E-08
  1 693 1.41897974E-08
  1 694 1.41825867E-08
  1 695 1.41759351E-08
  1 696 1.41758095E-08
  1 697 1.41749563E-08
  1 698 1.41657319E-08
  1 699 1.41614596E-08
  1 700 1.41583617E-08
  1 701 1.41541017E-08
  1 702 1.41537327E-08
  1 703 1.41453694E-08
  1 704 1.41425825E-08
  1 705 1.41424575E-08
  1 706 1.41343107E-08
  1 707 1.41298351E-08
  1 708 1.41266596E-08
  1 709 1.41204564E-08
  1 710 1.41204020E-08
  1 711 1.41188067E-08
  1 712 1.41166987E-08
  1 713 1.41166586E-08
  1 714 1.41141163E-08
  1 715 1.41093179E-08
  1 716 1.41059636E-08
  1 717 1.41040723E-08
  1 718 1.41027596E-08
  1 719 1.41015082E-08
  1 720 1.40936657E-08
  1 721 1.40911503E-08
  1 722 1.40910270E-08
  1 723 1.40877210E-08
  1 724 1.40814501E-08
  1 725 1.40794484E-08
  1 726 1.40794108E-08
  1 727 1.40664971E-08
  1 728 1.40635749E-08
  1 729 1.40581131E-08
  1 730 1.40579589E-08
  1 731 1.40570709E-08
  1 732 1.40579745E-08
  1 733 1.40590439E-08
  1 734 1.40589451E-08
  1 735 1.40576628E-08
  1 736 1.40551903E-08
  1 737 1.40515298E-08
  1 738 1.40466939E-08
  1 739 1.40407056E-08
  1 740 1.40335994E-08
  1 741 1.40254216E-08
  1 742 1.40162313E-08
  1 743 1.40101673E-08
  1 744 1.40052569E-08
  1 745 1.39941465E-08
  1 746 1.39857665E-08
  1 747 1.39809786E-08
  1 748 1.39724858E-08
  1 749 1.39631261E-08
  1 750 1.39529699E-08
  1 751 1.39420984E-08
  1 752 1.39362115E-08
  1 753 1.39334882E-08
  1 754 1.39296129E-08
  1 755 1.39246196E-08
  1 756 1.39185342E-08
  1 757 1.39113932E-08
  1 758 1.39032445E-08
  1 759 1.38941478E-08
  1 760 1.38873232E-08
  1 761 1.38814725E-08
  1 762 1.38810643E-08
  1 763 1.38800859E-08
  1 764 1.38796242E-08
  1 765 1.38723971E-08
  1 766 1.38647056E-08
  1 767 1.38634789E-08
  1 768 1.38611516E-08
  1 769 1.38598621E-08
  1 770 1.38590577E-08
  1 771 1.38582082E-08
  1 772 1.38489955E-08
  1 773 1.38393314E-08
  1 774 1.38367249E-08
  1 775 1.38321050E-08
  1 776 1.38314380E-08
  1 777 1.38293026E-08
  1 778 1.38251266E-08
  1 779 1.38197339E-08
  1 780 1.38189609E-08
  1 781 1.38124192E-08
  1 782 1.38085875E-08
  1 783 1.38031631E-08
  1 784 1.38029650E-08
  1 785 1.37959972E-08
  1 786 1.37880628E-08
  1 787 1.37792246E-08
  1 788 1.37695570E-08
  1 789 1.37591463E-08
  1 790 1.37480899E-08
  1 791 1.37364957E-08
  1 792 1.37244816E-08
  1 793 1.37121739E-08
  1 794 1.36997060E-08
  1 795 1.36872167E-08
  1 796 1.36748481E-08
  1 797 1.36712531E-08
  1 798 1.36690521E-08
  1 799 1.36659997E-08
  1 800 1.36559103E-08
  1 801 1.36551619E-08
  1 802 1.36471763E-08
  1 803 1.36458445E-08
  1 804 1.36382550E-08
  1 805 1.36301415E-08
  1 806 1.36240975E-08
  1 807 1.36218498E-08
  1 808 1.36217418E-08
  1 809 1.36207356E-08
  1 810 1.36181582E-08
  1 811 1.36146474E-08
  1 812 1.36142780E-08
  1 813 1.36103425E-08
  1 814 1.36056903E-08
  1 815 1.36003557E-08
  1 816 1.35995305E-08
  1 817 1.35982320E-08
  1 818 1.35981696E-08
  1 819 1.35937446E-08
  1 820 1.35886316E-08
  1 821 1.35828725E-08
  1 822 1.35775819E-08
  1 823 1.35768039E-08
  1 824 1.35721760E-08
  1 825 1.35716904E-08
  1 826 1.35660630E-08
  1 827 1.35596092E-08
  1 828 1.35530775E-08
  1 829 1.35502077E-08
  1 830 1.35495045E-08
  1 831 1.35478678E-08
  1 832 1.35468982E-08
  1 833 1.35397060E-08
  1 834 1.35376599E-08
  1 835 1.35341101E-08
  1 836 1.35275483E-08
  1 837 1.35271072E-08
  1 838 1.35258384E-08
  1 839 1.35239885E-08
  1 840 1.35215712E-08
  1 841 1.35186064E-08
  1 842 1.35151200E-08
  1 843 1.35111441E-08
  1 844 1.35067161E-08
  1 845 1.35018792E-08
  1 846 1.35008169E-08
  1 847 1.34989970E-08
  1 848 1.34989779E-08
  1 849 1.34984260E-08
  1 850 1.34979663E-08
  1 851 1.34960956E-08
  1 852 1.34934926E-08
  1 853 1.34929335E-08
  1 854 1.34925850E-08
  1 855 1.34899245E-08
  1 856 1.34868111E-08
  1 857 1.34865101E-08
  1 858 1.34854145E-08
  1 859 1.34823016E-08
  1 860 1.34795334E-08
  1 861 1.34809095E-08
  1 862 1.34832862E-08
  1 863 1.34837189E-08
  1 864 1.34862070E-08
  1 865 1.34881727E-08
  1 866 1.34883629E-08
  1 867 1.34895318E-08
  1 868 1.34903711E-08
  1 869 1.34904867E-08
  1 870 1.34905163E-08
  1 871 1.34968142E-08
  1 872 1.35033343E-08
  1 873 1.35096500E-08
  1 874 1.35103943E-08
  1 875 1.35157576E-08
  1 876 1.35205597E-08
  1 877 1.35246740E-08
  1 878 1.35329325E-08
  1 879 1.35409062E-08
  1 880 1.35485065E-08
  1 881 1.35505743E-08
  1 882 1.35520543E-08
  1 883 1.35606644E-08
  1 884 1.35637114E-08
  1 885 1.35648010E-08
  1 886 1.35679804E-08
  1 887 1.35696526E-08
  1 888 1.35804809E-08
  1 889 1.35911908E-08
  1 890 1.36016636E-08
  1 891 1.36024868E-08
  1 892 1.36134789E-08
  1 893 1.36239143E-08
  1 894 1.36336611E-08
  1 895 1.36363616E-08
  1 896 1.36421150E-08
  1 897 1.36424173E-08
  1 898 1.36429852E-08
  1 899 1.36433722E-08
  1 900 1.36458648E-08
  1 901 1.36560904E-08
  1 902 1.36657017E-08
  1 903 1.36704157E-08
  1 904 1.36705216E-08
  1 905 1.36707635E-08
  1 906 1.36746005E-08
  1 907 1.36752224E-08
  1 908 1.36763470E-08
  1 909 1.36789875E-08
  1 910 1.36860286E-08
  1 911 1.36906503E-08
  1 912 1.37007717E-08
  1 913 1.37101764E-08
  1 914 1.37187758E-08
  1 915 1.37192601E-08
  1 916 1.37203505E-08
  1 917 1.37240850E-08
  1 918 1.37348769E-08
  1 919 1.37422681E-08
  1 920 1.37473996E-08
  1 921 1.37576132E-08
  1 922 1.37601788E-08
  1 923 1.37646619E-08
  1 924 1.37661750E-08
  1 925 1.37782930E-08
  1 926 1.37914938E-08
  1 927 1.38042591E-08
  1 928 1.38164657E-08
  1 929 1.38279995E-08
  1 930 1.38387566E-08
  1 931 1.38486441E-08
  1 932 1.38495828E-08
  1 933 1.38501491E-08
  1 934 1.38529388E-08
  1 935 1.38663685E-08
  1 936 1.38791849E-08
  1 937 1.38899521E-08
  1 938 1.38935076E-08
  1 939 1.39096031E-08
  1 940 1.39249624E-08
  1 941 1.39260350E-08
  1 942 1.39386433E-08
  1 943 1.39504322E-08
  1 944 1.39612994E-08
  1 945 1.39622690E-08
  1 946 1.39735275E-08
  1 947 1.39850702E-08
  1 948 1.39895428E-08
  1 949 1.39913265E-08
  1 950 1.39965037E-08
  1 951 1.39975574E-08
  1 952 1.39996655E-08
  1 953 1.40002900E-08
  1 954 1.40032248E-08
  1 955 1.40037932E-08
  1 956 1.40173675E-08
  1 957 1.40196825E-08
  1 958 1.40199090E-08
  1 959 1.40221971E-08
  1 960 1.40294782E-08
  1 961 1.40329890E-08
  1 962 1.40406908E-08
  1 963 1.40409354E-08
  1 964 1.40416973E-08
  1 965 1.40436685E-08
  1 966 1.40436050E-08
  1 967 1.40540791E-08
  1 968 1.40552451E-08
  1 969 1.40589194E-08
  1 970 1.40598729E-08
  1 971 1.40622918E-08
  1 972 1.40652635E-08
  1 973 1.40654695E-08
  1 974 1.40672583E-08
  1 975 1.40798554E-08
  1 976 1.40913310E-08
  1 977 1.40932456E-08
  1 978 1.40948170E-08
  1 979 1.40955891E-08
  1 980 1.40977528E-08
  1 981 1.40990904E-08
  1 982 1.41035815E-08
  1 983 1.41036387E-08
  1 984 1.41053509E-08
  1 985 1.41078653E-08
  1 986 1.41084619E-08
  1 987 1.41165399E-08
  1 988 1.41235507E-08
  1 989 1.41244481E-08
  1 990 1.41264302E-08
  1 991 1.41325461E-08
  1 992 1.41331003E-08
  1 993 1.41333970E-08
  1 994 1.41343820E-08
  1 995 1.41373622E-08
  1 996 1.41386109E-08
  1 997 1.41397690E-08
  1 998 1.41406749E-08
  1 999 1.41430584E-08
  1 1000 1.41446142E-08
  1 1001 1.41460575E-08
  1 1002 1.41473658E-08
  1 1003 1.41482086E-08
  1 1004 1.41494063E-08
  1 1005 1.41499612E-08
  1 1006 1.41544313E-08
  1 1007 1.41550603E-08
  1 1008 1.41558649E-08
  1 1009 1.41608250E-08
  1 1010 1.41620746E-08
  1 1011 1.41721471E-08
  1 1012 1.41731965E-08
  1 1013 1.41752333E-08
  1 1014 1.41761442E-08
  1 1015 1.41857783E-08
  1 1016 1.41895137E-08
  1 1017 1.41899350E-08
  1 1018 1.41949160E-08
  1 1019 1.41949930E-08
  1 1020 1.41966365E-08
  1 1021 1.41985293E-08
  1 1022 1.41996457E-08
  1 1023 1.42000270E-08
  1 1024 1.41999779E-08
  1 1025 1.42070519E-08
  1 1026 1.42083990E-08
  1 1027 1.42108435E-08
  1 1028 1.42120452E-08
  1 1029 1.42122649E-08
  1 1030 1.42128726E-08
  1 1031 1.42139593E-08
  1 1032 1.42160531E-08
  1 1033 1.42178904E-08
  1 1034 1.42233699E-08
  1 1035 1.42252891E-08
  1 1036 1.42274509E-08
  1 1037 1.42290453E-08
  1 1038 1.42328093E-08
  1 1039 1.42335252E-08
  1 1040 1.42334956E-08
  1 1041 1.42381517E-08
  1 1042 1.42394090E-08
  1 1043 1.42406773E-08
  1 1044 1.42434043E-08
  1 1045 1.42439616E-08
  1 1046 1.42455268E-08
  1 1047 1.42522188E-08
  1 1048 1.42596356E-08
  1 1049 1.42606770E-08
  1 1050 1.42689856E-08
  1 1051 1.42739305E-08
  1 1052 1.42791855E-08
  1 1053 1.42864905E-08
  1 1054 1.42868721E-08
  1 1055 1.42897727E-08
  1 1056 1.42916716E-08
  1 1057 1.42919723E-08
  1 1058 1.42954405E-08
  1 1059 1.42959161E-08
  1 1060 1.42976267E-08
  1 1061 1.43035583E-08
  1 1062 1.43123192E-08
  1 1063 1.43127747E-08
  1 1064 1.43204219E-08
  1 1065 1.43208503E-08
  1 1066 1.43278095E-08
  1 1067 1.43280363E-08
  1 1068 1.43300557E-08
  1 1069 1.43321526E-08
  1 1070 1.43341842E-08
  1 1071 1.43370892E-08
  1 1072 1.43421215E-08
  1 1073 1.43495791E-08
  1 1074 1.43558898E-08
  1 1075 1.43610212E-08
  1 1076 1.43614526E-08
  1 1077 1.43637537E-08
  1 1078 1.43680210E-08
  1 1079 1.43680716E-08
  1 1080 1.43686074E-08
  1 1081 1.43688359E-08
  1 1082 1.43690688E-08
  1 1083 1.43691170E-08
  1 1084 1.43696538E-08
  1 1085 1.43705560E-08
  1 1086 1.43713914E-08
  1 1087 1.43716507E-08
  1 1088 1.43715887E-08
  1 1089 1.43720257E-08
  1 1090 1.43728343E-08
  1 1091 1.43729828E-08
  1 1092 1.43731736E-08
  1 1093 1.43778063E-08
  1 1094 1.43786125E-08
  1 1095 1.43787185E-08
  1 1096 1.43812897E-08
  1 1097 1.43822233E-08
  1 1098 1.43822815E-08
  1 1099 1.43829920E-08
  1 1100 1.43849840E-08
  1 1101 1.43861811E-08
  1 1102 1.43863873E-08
  1 1103 1.43864355E-08
  1 1104 1.43864734E-08
  1 1105 1.43865518E-08
  1 1106 1.43876663E-08
  1 1107 1.43882211E-08
  1 1108 1.43883134E-08
  1 1109 1.43884553E-08
  1 1110 1.43884974E-08
  1 1111 1.43886500E-08
  1 1112 1.43888126E-08
  1 1113 1.43888303E-08
  1 1114 1.43888825E-08
  1 1115 1.43893314E-08
  1 1116 1.43894103E-08
  1 1117 1.43893806E-08
  1 1118 1.43894596E-08
  1 1119 1.43895152E-08
  1 1120 1.43897084E-08
  1 1121 1.43907070E-08
  1 1122 1.43908162E-08
  1 1123 1.43910357E-08
  1 1124 1.43910743E-08
  1 1125 1.43910828E-08
  1 1126 1.43912038E-08
  1 1127 1.43912693E-08
  1 1128 1.43911984E-08
  1 1129 1.43915183E-08
  1 1130 1.43915021E-08
  1 1131 1.43914818E-08
  1 1132 1.43926674E-08
  1 1133 1.43930445E-08
  1 1134 1.43937395E-08
  1 1135 1.43939094E-08
  1 1136 1.43942337E-08
  1 1137 1.43943393E-08
  1 1138 1.43951072E-08
  1 1139 1.43962480E-08
  1 1140 1.43966763E-08
  1 1141 1.43966691E-08
  1 1142 1.43966473E-08
  1 1143 1.43966235E-08
  1 1144 1.43965245E-08
  1 1145 1.43965269E-08
  1 1146 1.43968031E-08
  1 1147 1.43967687E-08
  1 1148 1.43961343E-08
  1 1149 1.43961738E-08
  1 1150 1.43960777E-08
  1 1151 1.43960657E-08
  1 1152 1.43959395E-08
  1 1153 1.43957710E-08
  1 1154 1.43956715E-08
  1 1155 1.43949978E-08
  1 1156 1.43947128E-08
  1 1157 1.43963672E-08
  1 1158 1.43967960E-08
  1 1159 1.44011128E-08
  1 1160 1.44015049E-08
  1 1161 1.44018297E-08
  1 1162 1.44020860E-08
  1 1163 1.44037352E-08
  1 1164 1.44038716E-08
  1 1165 1.44043806E-08
  1 1166 1.44045827E-08
  1 1167 1.44052630E-08
  1 1168 1.44053862E-08
  1 1169 1.44055507E-08
  1 1170 1.44055869E-08
  1 1171 1.44054513E-08
  1 1172 1.44053328E-08
  1 1173 1.44045430E-08
  1 1174 1.44038447E-08
  1 1175 1.44030890E-08
  1 1176 1.44073079E-08
  1 1177 1.44105668E-08
  1 1178 1.44154960E-08
  1 1179 1.44199967E-08
  1 1180 1.44239491E-08
  1 1181 1.44249736E-08
  1 1182 1.44258172E-08
  1 1183 1.44259129E-08
  1 1184 1.44293054E-08
  1 1185 1.44301214E-08
  1 1186 1.44309979E-08
  1 1187 1.44312431E-08
  1 1188 1.44311969E-08
  1 1189 1.44328352E-08
  1 1190 1.44328853E-08
  1 1191 1.44349140E-08
  1 1192 1.44349543E-08
  1 1193 1.44390442E-08
  1 1194 1.44392492E-08
  1 1195 1.44405581E-08
  1 1196 1.44410236E-08
  1 1197 1.44436296E-08
  1 1198 1.44456644E-08
  1 1199 1.44470996E-08
  1 1200 1.44479174E-08
  1 1201 1.44479570E-08
  1 1202 1.44480044E-08
  1 1203 1.44480285E-08
  1 1204 1.44481223E-08
  1 1205 1.44483971E-08
  1 1206 1.44481541E-08
  1 1207 1.44472611E-08
  1 1208 1.44463671E-08
  1 1209 1.44451683E-08
  1 1210 1.44451542E-08
  1 1211 1.44449551E-08
  1 1212 1.44446517E-08
  1 1213 1.44441334E-08
  1 1214 1.44434781E-08
  1 1215 1.44435539E-08
  1 1216 1.44438704E-08
  1 1217 1.44438590E-08
  1 1218 1.44438566E-08
  1 1219 1.44438459E-08
  1 1220 1.44433210E-08
  1 1221 1.44431999E-08
  1 1222 1.44418962E-08
  1 1223 1.44416865E-08
  1 1224 1.44407020E-08
  1 1225 1.44405968E-08
  1 1226 1.44405638E-08
  1 1227 1.44395249E-08
  1 1228 1.44364976E-08
  1 1229 1.44360781E-08
  1 1230 1.44354501E-08
  1 1231 1.44351806E-08
  1 1232 1.44318993E-08
  1 1233 1.44281198E-08
  1 1234 1.44279616E-08
  1 1235 1.44269882E-08
  1 1236 1.44268063E-08
  1 1237 1.44259797E-08
  1 1238 1.44257482E-08
  1 1239 1.44233590E-08
  1 1240 1.44207473E-08
  1 1241 1.44204418E-08
  1 1242 1.44179391E-08
  1 1243 1.44175648E-08
  1 1244 1.44163149E-08
  1 1245 1.44166538E-08
  1 1246 1.44171265E-08
  1 1247 1.44171347E-08
  1 1248 1.44168626E-08
  1 1249 1.44157173E-08
  1 1250 1.44136675E-08
  1 1251 1.44133648E-08
  1 1252 1.44128477E-08
  1 1253 1.44125196E-08
  1 1254 1.44123025E-08
  1 1255 1.44118669E-08
  1 1256 1.44115719E-08
  1 1257 1.44099659E-08
  1 1258 1.44078044E-08
  1 1259 1.44076694E-08
  1 1260 1.44063278E-08
  1 1261 1.44060523E-08
  1 1262 1.44027928E-08
  1 1263 1.43988049E-08
  1 1264 1.43981892E-08
  1 1265 1.43906013E-08
  1 1266 1.43898927E-08
  1 1267 1.43888819E-08
  1 1268 1.43885134E-08
  1 1269 1.43876548E-08
  1 1270 1.43880040E-08
  1 1271 1.43881963E-08
  1 1272 1.43882450E-08
  1 1273 1.43887587E-08
  1 1274 1.43896347E-08
  1 1275 1.43899030E-08
  1 1276 1.43901379E-08
  1 1277 1.43901790E-08
  1 1278 1.43903789E-08
  1 1279 1.43906239E-08
  1 1280 1.43915857E-08
  1 1281 1.43917270E-08
  1 1282 1.43919920E-08
  1 1283 1.43938564E-08
  1 1284 1.43940888E-08
  1 1285 1.43977677E-08
  1 1286 1.43987642E-08
  1 1287 1.43987947E-08