# File generated by Flopy version 3.9.1 on 02/10/2026 at 22:14:51.
BEGIN options
  SAVE_FLOWS
END options

BEGIN dimensions
  MAXBOUND  22251
  NSEG  1
END dimensions

BEGIN period  1
  1 12      -9.00000000  6.61524613E-09       2.00000000
  1 13      -9.00000000  6.90646798E-09       2.00000000
  1 14      -8.00000000  6.90646798E-09       2.00000000
  1 15      -9.00000000  6.90646798E-09       2.00000000
  1 16      -9.00000000  6.90646798E-09       2.00000000
  1 17      -8.00000000  6.90646798E-09       2.00000000
  1 18      -9.00000000  6.90646798E-09       2.00000000
  1 19      -9.00000000  6.90646798E-09       2.00000000
  1 20      -9.00000000  6.90646798E-09       2.00000000
  1 21      -9.00000000  6.90646798E-09       2.00000000
  1 22      -9.00000000  6.90646798E-09       2.00000000
  1 23      -9.00000000  6.90646798E-09       2.00000000
  1 24      -9.00000000  6.90646798E-09       2.00000000
  1 25      -9.00000000  6.90646798E-09       2.00000000
  1 26      -9.00000000  6.90646798E-09       2.00000000
  1 27      -9.00000000  6.90646798E-09       2.00000000
  1 28      -9.00000000  6.90646798E-09       2.00000000
  1 29      -9.00000000  6.90646798E-09       2.00000000
  1 30      -9.00000000  6.90646798E-09       2.00000000
  1 31      -1.00000000  7.31867382E-09       2.00000000
  1 32      -1.00000000  7.31867382E-09       2.00000000
  1 33      -1.00000000  7.53025863E-09       2.00000000
  1 34      -1.00000000  7.53025863E-09       2.00000000
  1 35      19.00000000  4.23289885E-09       2.00000000
  1 36      29.00000000  4.57180035E-09       2.00000000
  1 37      20.00000000  5.06206410E-09       2.00000000
  1 38      28.00000000  5.06206410E-09       2.00000000
  1 39      30.00000000  5.06206410E-09       2.00000000
  1 40      21.00000000  5.06206410E-09       2.00000000
  1 41      20.00000000  5.06206410E-09       2.00000000
  1 42      22.00000000  5.06206410E-09       2.00000000
  1 43      31.00000000  4.96196047E-09       2.00000000
  1 44      30.00000000  5.04923658E-09       2.00000000
  1 45      26.00000000  5.04923658E-09       2.00000000
  1 46      26.00000000  5.04923658E-09       2.00000000
  1 47      24.00000000  5.24019790E-09       2.00000000
  1 48      27.00000000  5.24019790E-09       2.00000000
  1 49      26.00000000  5.24019790E-09       2.00000000
  1 50      25.00000000  5.24019790E-09       2.00000000
  1 51      30.00000000  5.31044172E-09       2.00000000
  1 52      27.00000000  5.31044172E-09       2.00000000
  1 53      29.00000000  5.31044172E-09       2.00000000
  1 54      30.00000000  5.31044172E-09       2.00000000
  1 55      22.00000000  5.31044172E-09       2.00000000
  1 56      22.00000000  5.25110288E-09       2.00000000
  1 57      21.00000000  5.25110288E-09       2.00000000
  1 58      26.00000000  5.25110288E-09       2.00000000
  1 59      31.00000000  5.25110288E-09       2.00000000
  1 60      30.00000000  5.25110288E-09       2.00000000
  1 61      30.00000000  5.27283292E-09       2.00000000
  1 62      29.00000000  5.27283292E-09       2.00000000
  1 63      28.00000000  5.13202295E-09       2.00000000
  1 64      28.00000000  5.20752590E-09       2.00000000
  1 65      30.00000000  5.20752590E-09       2.00000000
  1 66      29.00000000  5.20752590E-09       2.00000000
  1 67      29.00000000  5.20752590E-09       2.00000000
  1 68      27.00000000  5.20752590E-09       2.00000000
  1 69      27.00000000  5.20752590E-09       2.00000000
  1 70      27.00000000  5.20752590E-09       2.00000000
  1 71      26.00000000  5.20752590E-09       2.00000000
  1 72      27.00000000  5.20752590E-09       2.00000000
  1 73      27.00000000  5.20752590E-09       2.00000000
  1 74      28.00000000  5.20752590E-09       2.00000000
  1 75      25.00000000  5.20752590E-09       2.00000000
  1 76      42.00000000  5.37783337E-09       2.00000000
  1 77      34.00000000  5.37783337E-09       2.00000000
  1 78      39.00000000  5.37783337E-09       2.00000000
  1 79      32.00000000  5.21451105E-09       2.00000000
  1 80      31.00000000  5.21451105E-09       2.00000000
  1 81      29.00000000  5.21451105E-09       2.00000000
  1 82      29.00000000  5.21451105E-09       2.00000000
  1 83      29.00000000  5.21451105E-09       2.00000000
  1 84      29.00000000  5.21451105E-09       2.00000000
  1 85      29.00000000  5.21451105E-09       2.00000000
  1 86      29.00000000  5.21451105E-09       2.00000000
  1 87      29.00000000  5.21451105E-09       2.00000000
  1 88      36.00000000  5.21451105E-09       2.00000000
  1 89      35.00000000  5.21451105E-09       2.00000000
  1 90      31.00000000  5.21451105E-09       2.00000000
  1 91      37.00000000  5.21451105E-09       2.00000000
  1 92      40.00000000  5.21451105E-09       2.00000000
  1 93      39.00000000  5.21451105E-09       2.00000000
  1 94      38.00000000  5.40862392E-09       2.00000000
  1 95      35.00000000  5.40862392E-09       2.00000000
  1 96      40.00000000  5.40862392E-09       2.00000000
  1 97      36.00000000  5.40862392E-09       2.00000000
  1 98      32.00000000  5.40862392E-09       2.00000000
  1 99      30.00000000  5.40862392E-09       2.00000000
  1 100      30.00000000  5.40862392E-09       2.00000000
  1 101      30.00000000  5.40862392E-09       2.00000000
  1 102      29.00000000  5.40862392E-09       2.00000000
  1 103      25.00000000  5.40862392E-09       2.00000000
  1 104      28.00000000  5.40862392E-09       2.00000000
  1 105      26.00000000  5.40862392E-09       2.00000000
  1 106      27.00000000  5.40862392E-09       2.00000000
  1 107      26.00000000  5.46472867E-09       2.00000000
  1 108      28.00000000  5.46472867E-09       2.00000000
  1 109      37.00000000  5.46472867E-09       2.00000000
  1 110      34.00000000  5.46472867E-09       2.00000000
  1 111      35.00000000  5.46472867E-09       2.00000000
  1 112      35.00000000  5.46472867E-09       2.00000000
  1 113      38.00000000  5.46472867E-09       2.00000000
  1 114      35.00000000  5.46472867E-09       2.00000000
  1 115      32.00000000  5.46472867E-09       2.00000000
  1 116      33.00000000  5.46472867E-09       2.00000000
  1 117      32.00000000  5.46472867E-09       2.00000000
  1 118      31.00000000  5.46472867E-09       2.00000000
  1 119      30.00000000  5.46472867E-09       2.00000000
  1 120      30.00000000  5.46472867E-09       2.00000000
  1 121      29.00000000  5.46472867E-09       2.00000000
  1 122      28.00000000  5.46472867E-09       2.00000000
  1 123      29.00000000  5.46472867E-09       2.00000000
  1 124      30.00000000  5.46472867E-09       2.00000000
  1 125      29.00000000  5.46472867E-09       2.00000000
  1 126      28.00000000  5.46472867E-09       2.00000000
  1 127      26.00000000  5.46472867E-09       2.00000000
  1 128      27.00000000  5.46472867E-09       2.00000000
  1 129      27.00000000  5.46472867E-09       2.00000000
  1 130      33.00000000  5.72676498E-09       2.00000000
  1 131      35.00000000  5.72676498E-09       2.00000000
  1 132      39.00000000  5.72676498E-09       2.00000000
  1 133      39.00000000  5.72676498E-09       2.00000000
  1 134      39.00000000  5.72676498E-09       2.00000000
  1 135      35.00000000  5.72676498E-09       2.00000000
  1 136      36.00000000  5.73341892E-09       2.00000000
  1 137      37.00000000  5.73341892E-09       2.00000000
  1 138      39.00000000  5.73341892E-09       2.00000000
  1 139      40.00000000  5.73341892E-09       2.00000000
  1 140      45.00000000  5.73341892E-09       2.00000000
  1 141      39.00000000  5.73341892E-09       2.00000000
  1 142      51.00000000  5.73341892E-09       2.00000000
  1 143      51.00000000  5.73341892E-09       2.00000000
  1 144      58.00000000  5.73341892E-09       2.00000000
  1 145      57.00000000  5.73341892E-09       2.00000000
  1 146      60.00000000  5.83274650E-09       2.00000000
  1 147      57.00000000  5.83274650E-09       2.00000000
  1 148      60.00000000  5.83274650E-09       2.00000000
  1 149      59.00000000  5.83274650E-09       2.00000000
  1 150      59.00000000  5.83274650E-09       2.00000000
  1 151      59.00000000  5.83274650E-09       2.00000000
  1 152      52.00000000  5.83274650E-09       2.00000000
  1 153      71.00000000  5.83274650E-09       2.00000000
  1 154      57.00000000  5.83274650E-09       2.00000000
  1 155      55.00000000  5.82366673E-09       2.00000000
  1 156      79.00000000  5.82366673E-09       2.00000000
  1 157      72.00000000  5.82366673E-09       2.00000000
  1 158      73.00000000  5.82366673E-09       2.00000000
  1 159      48.00000000  5.82366673E-09       2.00000000
  1 160      59.00000000  5.82366673E-09       2.00000000
  1 161      79.00000000  5.82366673E-09       2.00000000
  1 162      79.00000000  5.92498902E-09       2.00000000
  1 163      88.00000000  5.92498902E-09       2.00000000
  1 164      85.00000000  5.92498902E-09       2.00000000
  1 165      80.00000000  5.97273193E-09       2.00000000
  1 166      79.00000000  5.97273193E-09       2.00000000
  1 167      80.00000000  5.97273193E-09       2.00000000
  1 168      96.00000000  5.97273193E-09       2.00000000
  1 169      88.00000000  5.97273193E-09       2.00000000
  1 170      98.00000000  6.20667000E-09       2.00000000
  1 171     106.00000000  6.20667000E-09       2.00000000
  1 172     109.00000000  6.20667000E-09       2.00000000
  1 173     110.00000000  6.20667000E-09       2.00000000
  1 174     130.00000000  6.55469678E-09       2.00000000
  1 175      89.00000000  6.89516297E-09       2.00000000
  1 176      88.00000000  6.76091850E-09       2.00000000
  1 177      91.00000000  6.92977897E-09       2.00000000
  1 178      90.00000000  6.92977897E-09       2.00000000
  1 179      78.00000000  6.92977897E-09       2.00000000
  1 180      83.00000000  6.92977897E-09       2.00000000
  1 181     123.00000000  6.80565012E-09       2.00000000
  1 182      84.00000000  6.80565012E-09       2.00000000
  1 183      85.00000000  6.80565012E-09       2.00000000
  1 184     115.00000000  6.76708467E-09       2.00000000
  1 185     123.00000000  6.76708467E-09       2.00000000
  1 186     133.00000000  6.76708467E-09       2.00000000
  1 187     148.00000000  6.76708467E-09       2.00000000
  1 188     148.00000000  6.76708467E-09       2.00000000
  1 189     140.00000000  6.76708467E-09       2.00000000
  1 190     133.00000000  6.76708467E-09       2.00000000
  1 191     139.00000000  6.71283992E-09       2.00000000
  1 192      70.00000000  6.62944662E-09       2.00000000
  1 193      74.00000000  6.81028048E-09       2.00000000
  1 194      89.00000000  6.81028048E-09       2.00000000
  1 195      81.00000000  6.81028048E-09       2.00000000
  1 196     100.00000000  6.80285753E-09       2.00000000
  1 197      97.00000000  6.80285753E-09       2.00000000
  1 198      73.00000000  6.81028048E-09       2.00000000
  1 199      68.00000000  6.81028048E-09       2.00000000
  1 200      89.00000000  6.81028048E-09       2.00000000
  1 201      75.00000000  6.79677795E-09       2.00000000
  1 202      64.00000000  7.06754728E-09       2.00000000
  1 203      59.00000000  7.06754728E-09       2.00000000
  1 204      75.00000000  6.79677795E-09       2.00000000
  1 205      32.00000000  6.99640568E-09       2.00000000
  1 206      33.00000000  6.99640568E-09       2.00000000
  1 207      21.00000000  6.99640568E-09       2.00000000
  1 208      19.00000000  6.99640568E-09       2.00000000
  1 209      16.00000000  6.99640568E-09       2.00000000
  1 210      15.00000000  6.99640568E-09       2.00000000
  1 211      13.00000000  6.99640568E-09       2.00000000
  1 212      12.00000000  7.49228162E-09       2.00000000
  1 213      12.00000000  7.49228162E-09       2.00000000
  1 214      12.00000000  6.99640568E-09       2.00000000
  1 215      12.00000000  7.49228162E-09       2.00000000
  1 216      12.00000000  7.49228162E-09       2.00000000
  1 217      11.00000000  7.69588245E-09       2.00000000
  1 218      13.00000000  7.69588245E-09       2.00000000
  1 219      13.00000000  7.69588245E-09       2.00000000
  1 220      12.00000000  7.69588245E-09       2.00000000
  1 221       7.00000000  7.69588245E-09       2.00000000
  1 222       7.00000000  7.69588245E-09       2.00000000
  1 223       7.00000000  7.69588245E-09       2.00000000
  1 224       6.00000000  7.69588245E-09       2.00000000
  1 225       6.00000000  7.69588245E-09       2.00000000
  1 226       6.00000000  7.69588245E-09       2.00000000
  1 227       6.00000000  7.69588245E-09       2.00000000
  1 228       5.00000000  7.69588245E-09       2.00000000
  1 229       5.00000000  7.69588245E-09       2.00000000
  1 230       4.00000000  8.13080270E-09       2.00000000
  1 231       4.00000000  8.13080270E-09       2.00000000
  1 232       3.00000000  8.13080270E-09       2.00000000
  1 233       3.00000000  8.13080270E-09       2.00000000
  1 234       4.00000000  7.94473377E-09       2.00000000
  1 235       1.00000000  7.94473377E-09       2.00000000
  1 236       0.00000000  7.94473377E-09       2.00000000
  1 237       1.00000000  7.94473377E-09       2.00000000
  1 238       1.00000000  7.94473377E-09       2.00000000
  1 239       2.00000000  7.94473377E-09       2.00000000
  1 240       2.00000000  7.94473377E-09       2.00000000
  1 241       3.00000000  8.55540972E-09       2.00000000
  1 242       4.00000000  8.41670882E-09       2.00000000
  1 243       2.00000000  8.41670882E-09       2.00000000
  1 244       2.00000000  9.21914175E-09       2.00000000
  1 249     -16.00000000  9.52507777E-09       2.00000000
  1 250     -16.00000000  9.52507777E-09       2.00000000
  1 251     -16.00000000  9.52507777E-09       2.00000000
  1 252     -16.00000000  9.52507777E-09       2.00000000
  1 253     -16.00000000  9.52507777E-09       2.00000000
  1 254     -15.00000000  9.52507777E-09       2.00000000
  1 255     -14.00000000  9.52507777E-09       2.00000000
  1 256     -16.00000000  9.52507777E-09       2.00000000
  1 259     -16.00000000  9.44675967E-09       2.00000000
  1 260     -16.00000000  9.44675967E-09       2.00000000
  1 261     -16.00000000  9.44675967E-09       2.00000000
  1 262     -16.00000000  9.44675967E-09       2.00000000
  1 263     -16.00000000  9.44675967E-09       2.00000000
  1 264     -10.00000000  9.44675967E-09       2.00000000
  1 273     -11.00000000  9.12758905E-09       2.00000000
  1 274     -16.00000000  9.12758905E-09       2.00000000
  1 303     -14.00000000  8.40319740E-09       2.00000000
  1 304     -11.00000000  8.40319740E-09       2.00000000
  1 305     -11.00000000  8.40319740E-09       2.00000000
  1 306     -11.00000000  8.40319740E-09       2.00000000
  1 307     -15.00000000  8.40319740E-09       2.00000000
  1 308     -16.00000000  8.40319740E-09       2.00000000
  1 309     -16.00000000  8.40319740E-09       2.00000000
  1 310     -15.00000000  8.40319740E-09       2.00000000
  1 311      -6.00000000  7.57977310E-09       2.00000000
  1 312     -16.00000000  7.57977310E-09       2.00000000
  1 313     -16.00000000  7.57977310E-09       2.00000000
  1 314     -16.00000000  7.57977310E-09       2.00000000
  1 386     -16.00000000  7.91533432E-09       2.00000000
  1 387     -16.00000000  7.91533432E-09       2.00000000
  1 388      -2.00000000  7.61315085E-09       2.00000000
  1 389      -2.00000000  7.61315085E-09       2.00000000
  1 390      -2.00000000  7.61315085E-09       2.00000000
  1 391      -2.00000000  7.61315085E-09       2.00000000
  1 392      -2.00000000  7.61315085E-09       2.00000000
  1 393      -2.00000000  7.61315085E-09       2.00000000
  1 394      -2.00000000  7.61315085E-09       2.00000000
  1 395      -2.00000000  7.61315085E-09       2.00000000
  1 396      -1.00000000  7.61315085E-09       2.00000000
  1 397      -2.00000000  7.35048910E-09       2.00000000
  1 441      -2.00000000  7.79090940E-09       2.00000000
  1 442      -2.00000000  7.79090940E-09       2.00000000
  1 443      -2.00000000  7.79090940E-09       2.00000000
  1 444      -2.00000000  7.79090940E-09       2.00000000
  1 445      -2.00000000  7.79090940E-09       2.00000000
  1 446      -3.00000000  7.79090940E-09       2.00000000
  1 447      -2.00000000  7.79090940E-09       2.00000000
  1 448      -2.00000000  7.79090940E-09       2.00000000
  1 449      -2.00000000  7.79090940E-09       2.00000000
  1 450      -2.00000000  7.79090940E-09       2.00000000
  1 451      -2.00000000  7.79090940E-09       2.00000000
  1 452      -2.00000000  7.79090940E-09       2.00000000
  1 453      -2.00000000  7.79090940E-09       2.00000000
  1 454      -2.00000000  7.79090940E-09       2.00000000
  1 455      -2.00000000  7.79090940E-09       2.00000000
  1 456      -2.00000000  7.79090940E-09       2.00000000
  1 457      -2.00000000  7.79090940E-09       2.00000000
  1 458      -2.00000000  7.79090940E-09       2.00000000
  1 459      -2.00000000  7.79090940E-09       2.00000000
  1 460      -2.00000000  7.79090940E-09       2.00000000
  1 461      -2.00000000  7.79090940E-09       2.00000000
  1 462      -2.00000000  7.79090940E-09       2.00000000
  1 463      -2.00000000  7.79090940E-09       2.00000000
  1 464      -2.00000000  7.79090940E-09       2.00000000
  1 465      -2.00000000  7.79090940E-09       2.00000000
  1 466      -2.00000000  7.79090940E-09       2.00000000
  1 467      -2.00000000  7.79090940E-09       2.00000000
  1 468      -2.00000000  7.79090940E-09       2.00000000
  1 469      -2.00000000  7.10413950E-09       2.00000000
  1 470      -2.00000000  7.10413950E-09       2.00000000
  1 471      -2.00000000  7.10413950E-09       2.00000000
  1 482       0.00000000  6.97645423E-09       2.00000000
  1 483      -2.00000000  6.97645423E-09       2.00000000
  1 484      -1.00000000  6.97645423E-09       2.00000000
  1 485       7.00000000  6.97645423E-09       2.00000000
  1 486      -2.00000000  6.97645423E-09       2.00000000
  1 487       1.00000000  6.97645423E-09       2.00000000
  1 488      -2.00000000  6.97645423E-09       2.00000000
  1 489      -2.00000000  6.97645423E-09       2.00000000
  1 490      -2.00000000  6.97645423E-09       2.00000000
  1 491      -2.00000000  6.97645423E-09       2.00000000
  1 492      -2.00000000  6.97645423E-09       2.00000000
  1 493      -2.00000000  6.97645423E-09       2.00000000
  1 494      -1.00000000  6.97645423E-09       2.00000000
  1 495      -2.00000000  6.97645423E-09       2.00000000
  1 496      -2.00000000  6.97645423E-09       2.00000000
  1 497      -2.00000000  7.09766542E-09       2.00000000
  1 498       0.00000000  7.09766542E-09       2.00000000
  1 499      -1.00000000  7.09766542E-09       2.00000000
  1 500      -2.00000000  7.09766542E-09       2.00000000
  1 501      -2.00000000  7.09766542E-09       2.00000000
  1 502      -2.00000000  7.09766542E-09       2.00000000
  1 503      -2.00000000  7.09766542E-09       2.00000000
  1 504      -2.00000000  7.09766542E-09       2.00000000
  1 505      -2.00000000  7.09766542E-09       2.00000000
  1 506      -2.00000000  7.09766542E-09       2.00000000
  1 507      -2.00000000  7.09766542E-09       2.00000000
  1 643       7.00000000  7.53025863E-09       2.00000000
  1 644       7.00000000  7.53025863E-09       2.00000000
  1 645       7.00000000  7.53025863E-09       2.00000000
  1 646       7.00000000  7.53025863E-09       2.00000000
  1 647       7.00000000  7.53025863E-09       2.00000000
  1 648       6.00000000  7.53025863E-09       2.00000000
  1 649       6.00000000  7.53025863E-09       2.00000000
  1 650       6.00000000  7.53025863E-09       2.00000000
  1 651       7.00000000  7.53025863E-09       2.00000000
  1 652       7.00000000  7.53025863E-09       2.00000000
  1 653       7.00000000  7.53025863E-09       2.00000000
  1 654       7.00000000  7.53025863E-09       2.00000000
  1 655       7.00000000  7.53025863E-09       2.00000000
  1 656       8.00000000  7.53025863E-09       2.00000000
  1 657       8.00000000  7.53025863E-09       2.00000000
  1 658       8.00000000  7.53025863E-09       2.00000000
  1 659       8.00000000  7.53025863E-09       2.00000000
  1 660       8.00000000  7.53025863E-09       2.00000000
  1 661       8.00000000  7.53025863E-09       2.00000000
  1 662       8.00000000  7.53025863E-09       2.00000000
  1 663       8.00000000  7.53025863E-09       2.00000000
  1 664       8.00000000  7.53025863E-09       2.00000000
  1 665       8.00000000  7.53025863E-09       2.00000000
  1 666       8.00000000  7.53025863E-09       2.00000000
  1 667       8.00000000  7.31867382E-09       2.00000000
  1 668       8.00000000  7.31867382E-09       2.00000000
  1 669       8.00000000  7.31867382E-09       2.00000000
  1 670       8.00000000  7.31867382E-09       2.00000000
  1 671       8.00000000  7.31867382E-09       2.00000000
  1 672       8.00000000  7.31867382E-09       2.00000000
  1 673       8.00000000  7.31867382E-09       2.00000000
  1 674       8.00000000  7.31867382E-09       2.00000000
  1 675       7.00000000  7.31867382E-09       2.00000000
  1 676       8.00000000  7.31867382E-09       2.00000000
  1 677       8.00000000  7.31867382E-09       2.00000000
  1 678       8.00000000  7.31867382E-09       2.00000000
  1 679       8.00000000  7.31867382E-09       2.00000000
  1 680       9.00000000  7.31867382E-09       2.00000000
  1 681       8.00000000  7.31867382E-09       2.00000000
  1 682       8.00000000  7.31867382E-09       2.00000000
  1 683       8.00000000  7.31867382E-09       2.00000000
  1 684       8.00000000  7.31867382E-09       2.00000000
  1 685       8.00000000  7.31867382E-09       2.00000000
  1 686       8.00000000  7.31867382E-09       2.00000000
  1 687       8.00000000  7.31867382E-09       2.00000000
  1 688       8.00000000  7.31867382E-09       2.00000000
  1 689       8.00000000  7.31867382E-09       2.00000000
  1 690       8.00000000  7.31867382E-09       2.00000000
  1 691       8.00000000  7.31867382E-09       2.00000000
  1 692       8.00000000  7.31867382E-09       2.00000000
  1 693       8.00000000  7.31867382E-09       2.00000000
  1 694       8.00000000  7.31867382E-09       2.00000000
  1 695       7.00000000  7.31867382E-09       2.00000000
  1 696       7.00000000  7.31867382E-09       2.00000000
  1 697       7.00000000  7.31867382E-09       2.00000000
  1 698       8.00000000  7.31867382E-09       2.00000000
  1 699       8.00000000  7.31867382E-09       2.00000000
  1 700       8.00000000  7.31867382E-09       2.00000000
  1 701       8.00000000  7.31867382E-09       2.00000000
  1 702       8.00000000  7.31867382E-09       2.00000000
  1 703       8.00000000  7.31867382E-09       2.00000000
  1 704       8.00000000  7.31867382E-09       2.00000000
  1 705       8.00000000  7.31867382E-09       2.00000000
  1 706       8.00000000  7.31867382E-09       2.00000000
  1 707       8.00000000  7.31867382E-09       2.00000000
  1 708       8.00000000  7.31867382E-09       2.00000000
  1 709       8.00000000  7.31867382E-09       2.00000000
  1 710       8.00000000  7.31867382E-09       2.00000000
  1 711       8.00000000  7.31867382E-09       2.00000000
  1 712       8.00000000  7.31867382E-09       2.00000000
  1 713       8.00000000  7.31867382E-09       2.00000000
  1 714       8.00000000  7.31867382E-09       2.00000000
  1 715       7.00000000  7.31867382E-09       2.00000000
  1 716       7.00000000  7.31867382E-09       2.00000000
  1 717       7.00000000  7.31867382E-09       2.00000000
  1 718       7.00000000  7.31867382E-09       2.00000000
  1 719       7.00000000  7.31867382E-09       2.00000000
  1 720       7.00000000  7.31867382E-09       2.00000000
  1 721       7.00000000  7.31867382E-09       2.00000000
  1 722       7.00000000  7.31867382E-09       2.00000000
  1 723       7.00000000  7.31867382E-09       2.00000000
  1 724       7.00000000  7.31867382E-09       2.00000000
  1 725       7.00000000  7.31867382E-09       2.00000000
  1 726       7.00000000  7.31867382E-09       2.00000000
  1 727       7.00000000  7.31867382E-09       2.00000000
  1 728       7.00000000  7.31867382E-09       2.00000000
  1 729       7.00000000  7.31867382E-09       2.00000000
  1 730       7.00000000  7.31867382E-09       2.00000000
  1 731       7.00000000  7.31867382E-09       2.00000000
  1 732       7.00000000  7.31867382E-09       2.00000000
  1 733       7.00000000  7.31867382E-09       2.00000000
  1 734       7.00000000  7.31867382E-09       2.00000000
  1 735       7.00000000  7.31867382E-09       2.00000000
  1 736       7.00000000  7.31867382E-09       2.00000000
  1 737       7.00000000  7.31867382E-09       2.00000000
  1 738       7.00000000  7.31867382E-09       2.00000000
  1 739       7.00000000  7.31867382E-09       2.00000000
  1 740       6.00000000  7.31867382E-09       2.00000000
  1 741       6.00000000  7.31867382E-09       2.00000000
  1 742       6.00000000  7.31867382E-09       2.00000000
  1 743       6.00000000  7.31867382E-09       2.00000000
  1 744       6.00000000  7.31867382E-09       2.00000000
  1 745       5.00000000  7.31867382E-09       2.00000000
  1 746       5.00000000  7.31867382E-09       2.00000000
  1 747       5.00000000  7.31867382E-09       2.00000000
  1 748       4.00000000  7.31867382E-09       2.00000000
  1 749       4.00000000  7.31867382E-09       2.00000000
  1 750       4.00000000  7.31867382E-09       2.00000000
  1 751       3.00000000  7.31867382E-09       2.00000000
  1 752       3.00000000  7.31867382E-09       2.00000000
  1 753       3.00000000  7.31867382E-09       2.00000000
  1 754       3.00000000  7.31867382E-09       2.00000000
  1 755       3.00000000  7.31867382E-09       2.00000000
  1 756       3.00000000  7.31867382E-09       2.00000000
  1 757       3.00000000  7.31867382E-09       2.00000000
  1 758       3.00000000  7.31867382E-09       2.00000000
  1 759       4.00000000  7.31867382E-09       2.00000000
  1 760       4.00000000  7.31867382E-09       2.00000000
  1 761       4.00000000  7.31867382E-09       2.00000000
  1 762       4.00000000  7.31867382E-09       2.00000000
  1 763       4.00000000  7.31867382E-09       2.00000000
  1 764       4.00000000  7.31867382E-09       2.00000000
  1 765       4.00000000  7.31867382E-09       2.00000000
  1 766       4.00000000  7.31867382E-09       2.00000000
  1 767       4.00000000  7.31867382E-09       2.00000000
  1 768       4.00000000  7.31867382E-09       2.00000000
  1 769       4.00000000  7.31867382E-09       2.00000000
  1 770       4.00000000  7.31867382E-09       2.00000000
  1 771       4.00000000  7.31867382E-09       2.00000000
  1 772       4.00000000  7.31867382E-09       2.00000000
  1 773       4.00000000  7.31867382E-09       2.00000000
  1 774       4.00000000  7.31867382E-09       2.00000000
  1 775       4.00000000  7.31867382E-09       2.00000000
  1 776       4.00000000  7.31867382E-09       2.00000000
  1 777       5.00000000  7.31867382E-09       2.00000000
  1 778       5.00000000  7.31867382E-09       2.00000000
  1 779       5.00000000  7.31867382E-09       2.00000000
  1 780       5.00000000  7.31867382E-09       2.00000000
  1 781       5.00000000  7.31867382E-09       2.00000000
  1 782       5.00000000  7.31867382E-09       2.00000000
  1 783       5.00000000  7.31867382E-09       2.00000000
  1 784       5.00000000  7.31867382E-09       2.00000000
  1 785       5.00000000  7.31867382E-09       2.00000000
  1 786       5.00000000  7.31867382E-09       2.00000000
  1 787       5.00000000  7.31867382E-09       2.00000000
  1 788       5.00000000  7.31867382E-09       2.00000000
  1 789       6.00000000  7.31867382E-09       2.00000000
  1 790       6.00000000  7.31867382E-09       2.00000000
  1 791       6.00000000  7.31867382E-09       2.00000000
  1 792       6.00000000  7.31867382E-09       2.00000000
  1 793       6.00000000  7.31867382E-09       2.00000000
  1 794       6.00000000  7.31867382E-09       2.00000000
  1 795       6.00000000  7.31867382E-09       2.00000000
  1 796       6.00000000  7.31867382E-09       2.00000000
  1 797       6.00000000  7.31867382E-09       2.00000000
  1 798       6.00000000  7.31867382E-09       2.00000000
  1 799       6.00000000  7.31867382E-09       2.00000000
  1 800       6.00000000  7.31867382E-09       2.00000000
  1 801       6.00000000  7.31867382E-09       2.00000000
  1 802       6.00000000  7.31867382E-09       2.00000000
  1 803       6.00000000  7.31867382E-09       2.00000000
  1 804       6.00000000  7.31867382E-09       2.00000000
  1 805       6.00000000  7.31867382E-09       2.00000000
  1 806       6.00000000  7.31867382E-09       2.00000000
  1 807       6.00000000  7.31867382E-09       2.00000000
  1 808       6.00000000  7.31867382E-09       2.00000000
  1 809       7.00000000  6.90646798E-09       2.00000000
  1 810       7.00000000  6.90646798E-09       2.00000000
  1 811       7.00000000  6.90646798E-09       2.00000000
  1 812       7.00000000  6.90646798E-09       2.00000000
  1 813       7.00000000  6.90646798E-09       2.00000000
  1 814       7.00000000  6.90646798E-09       2.00000000
  1 815       8.00000000  6.90646798E-09       2.00000000
  1 816       8.00000000  6.90646798E-09       2.00000000
  1 817       8.00000000  6.90646798E-09       2.00000000
  1 818       8.00000000  6.90646798E-09       2.00000000
  1 819      17.00000000  6.90646798E-09       2.00000000
  1 820      16.00000000  6.90646798E-09       2.00000000
  1 821      16.00000000  6.90646798E-09       2.00000000
  1 822      16.00000000  6.90646798E-09       2.00000000
  1 823      16.00000000  6.90646798E-09       2.00000000
  1 824      16.00000000  6.90646798E-09       2.00000000
  1 825      16.00000000  6.90646798E-09       2.00000000
  1 826      16.00000000  6.90646798E-09       2.00000000
  1 827      16.00000000  6.90646798E-09       2.00000000