# File generated by Flopy version 3.9.1 on 01/11/2026 at 23:32:40.
BEGIN options
  BUDGET  FILEOUT  quadtree_caseD_1.cbc
  HEAD  FILEOUT  quadtree_caseD_1.hds
END options

BEGIN period  1
  SAVE  HEAD  LAST
  SAVE  BUDGET  LAST
  PRINT  BUDGET  LAST
END period  1

