# File generated by Flopy version 3.9.1 on 04/08/2026 at 09:09:30.
BEGIN options
  FIXED_CELL
  PRINT_FLOWS
  SAVE_FLOWS
END options

BEGIN dimensions
  MAXBOUND  59723
END dimensions

BEGIN period  1
  1 5.70064593E-09
  2 5.67954965E-09
  3 5.92691498E-09
  4 6.37600478E-09
  5 6.81647332E-09
  6 7.19584852E-09
  7 7.47661610E-09
  8 6.38623158E-09
  9 5.90802963E-09
  10 5.64318126E-09
  11 5.54531307E-09
  12 5.62183418E-09
  13 5.53578359E-09
  14 5.50532554E-09
  15 5.53447124E-09
  16 5.50279962E-09
  17 5.53264859E-09
  18 5.60700598E-09
  19 5.49850819E-09
  20 5.51560105E-09
  21 5.49570871E-09
  22 5.51349175E-09
  23 5.58246734E-09
  24 5.75578231E-09
  25 5.95684084E-09
  26 5.74423871E-09
  27 5.98643864E-09
  28 6.22643819E-09
  29 6.47640709E-09
  30 6.24339614E-09
  31 6.50452044E-09
  32 6.84764374E-09
  33 7.24830559E-09
  34 7.53390022E-09
  35 7.74065149E-09
  36 7.87004280E-09
  37 7.78794683E-09
  38 7.73318747E-09
  39 7.65401815E-09
  40 6.95976962E-09
  41 6.50925479E-09
  42 6.08406899E-09
  43 5.84607119E-09
  44 6.18588314E-09
  45 5.94686176E-09
  46 5.65488747E-09
  47 5.54811728E-09
  48 5.51655920E-09
  49 5.50655266E-09
  50 5.52702056E-09
  51 5.51687271E-09
  52 5.57821247E-09
  53 5.54173860E-09
  54 5.53146947E-09
  55 5.56087703E-09
  56 5.55050870E-09
  57 5.75282999E-09
  58 5.62601398E-09
  59 5.59212476E-09
  60 5.69245795E-09
  61 5.65847871E-09
  62 5.50291107E-09
  63 5.50567370E-09
  64 5.51317681E-09
  65 5.51597356E-09
  66 5.52644718E-09
  67 5.52772541E-09
  68 5.53054857E-09
  69 5.54672338E-09
  70 5.54956459E-09
  71 5.53989352E-09
  72 5.55562893E-09
  73 5.55898585E-09
  74 5.57485248E-09
  75 5.56946892E-09
  76 5.63499637E-09
  77 5.59993779E-09
  78 5.66679486E-09
  79 5.57031828E-09
  80 5.57316859E-09
  81 5.59863588E-09
  82 5.60148584E-09
  83 5.58264082E-09
  84 5.59859730E-09
  85 5.61098194E-09
  86 5.62698397E-09
  87 5.65076078E-09
  88 5.66968031E-09
  89 5.64784906E-09
  90 5.71538295E-09
  91 5.71410869E-09
  92 5.78157422E-09
  93 5.78375752E-09
  94 5.95660237E-09
  95 6.08381049E-09
  96 5.99436772E-09
  97 6.12275462E-09
  98 5.90239067E-09
  99 6.04661722E-09
  100 6.12800582E-09
  101 6.19359335E-09
  102 6.15761058E-09
  103 6.22299165E-09
  104 6.11376434E-09
  105 6.19071045E-09
  106 6.25571851E-09
  107 6.22731033E-09
  108 6.29177413E-09
  109 6.21588674E-09
  110 6.34963797E-09
  111 6.25565888E-09
  112 6.38984470E-09
  113 6.56670858E-09
  114 6.26001568E-09
  115 6.32686653E-09
  116 6.28916118E-09
  117 6.35571364E-09
  118 6.39377854E-09
  119 6.46042386E-09
  120 6.42228329E-09
  121 6.48854466E-09
  122 6.32146950E-09
  123 6.38755980E-09
  124 6.35693655E-09
  125 6.42239710E-09
  126 6.45362636E-09
  127 6.51934695E-09
  128 6.48779646E-09
  129 6.55281650E-09
  130 6.57269945E-09
  131 6.70072169E-09
  132 6.63255221E-09
  133 6.75805304E-09
  134 6.81637599E-09
  135 7.04155294E-09
  136 6.90850492E-09
  137 7.12579819E-09
  138 7.34942742E-09
  139 7.62843818E-09
  140 7.81565771E-09
  141 7.92616435E-09
  142 7.97017959E-09
  143 7.95492437E-09
  144 7.74639326E-09
  145 7.75871992E-09
  146 7.77384730E-09
  147 7.79272640E-09
  148 7.80645408E-09
  149 7.78001562E-09
  150 7.73189531E-09
  151 7.62414504E-09
  152 7.43714634E-09
  153 7.17161733E-09
  154 6.77882424E-09
  155 6.33994296E-09
  156 6.11903714E-09
  157 6.01044607E-09
  158 6.21468146E-09
  159 6.10928558E-09
  160 6.54437111E-09
  161 6.32478144E-09
  162 6.21842383E-09
  163 6.16995619E-09
  164 6.27893125E-09
  165 6.23167725E-09
  166 6.44845502E-09
  167 6.34301388E-09
  168 6.29713040E-09
  169 6.41051178E-09
  170 6.36615120E-09
  171 5.91461071E-09
  172 5.83584524E-09
  173 6.01607969E-09
  174 5.93933133E-09
  175 5.80831869E-09
  176 6.12467394E-09
  177 6.08310505E-09
  178 6.18751039E-09
  179 6.14694883E-09
  180 6.06086237E-09
  181 6.25422796E-09
  182 6.21481257E-09
  183 6.32465809E-09
  184 6.28652403E-09
  185 6.19949163E-09
  186 6.00662511E-09
  187 5.97488621E-09
  188 6.14816121E-09
  189 6.08611516E-09
  190 6.07659344E-09
  191 6.16188224E-09
  192 6.15263747E-09
  193 5.79309671E-09
  194 5.87920478E-09
  195 5.96749078E-09
  196 5.98483473E-09
  197 6.07299689E-09
  198 6.07537508E-09
  199 6.14912778E-09
  200 6.15140209E-09
  201 6.12725962E-09
  202 6.02581206E-09
  203 6.11358832E-09
  204 6.19352218E-09
  205 6.25478664E-09
  206 5.97294785E-09
  207 6.07871575E-09
  208 6.07666312E-09
  209 6.17928191E-09
  210 6.19590760E-09
  211 6.32028916E-09
  212 6.29279937E-09
  213 6.41307031E-09
  214 6.14283896E-09
  215 6.18919120E-09
  216 6.20774616E-09
  217 6.25291865E-09
  218 6.23895655E-09
  219 6.29159609E-09
  220 6.30140605E-09
  221 6.35268068E-09
  222 6.27660218E-09
  223 6.32044494E-09
  224 6.34922062E-09
  225 6.39158848E-09
  226 6.36749649E-09
  227 6.41724271E-09
  228 6.43705154E-09
  229 6.48511146E-09
  230 6.40383195E-09
  231 6.51857718E-09
  232 6.46918087E-09
  233 6.52282896E-09
  234 6.53528135E-09
  235 6.58709484E-09
  236 6.57773309E-09
  237 6.63347283E-09
  238 6.64011319E-09
  239 6.69393040E-09
  240 6.44809949E-09
  241 6.57619444E-09
  242 6.53643685E-09
  243 6.65986341E-09
  244 6.70208812E-09
  245 6.82392117E-09
  246 6.78096972E-09
  247 6.89799237E-09
  248 6.63611725E-09
  249 6.75356341E-09
  250 6.74629362E-09
  251 6.85651250E-09
  252 6.81709466E-09
  253 6.87455423E-09
  254 6.86384976E-09
  255 6.91967510E-09
  256 6.93091480E-09
  257 6.98603233E-09
  258 6.97442238E-09
  259 7.02795307E-09
  260 6.91264905E-09
  261 6.96670569E-09
  262 6.96337909E-09
  263 7.01553874E-09
  264 7.01971210E-09
  265 7.07153535E-09
  266 7.06668273E-09
  267 7.11668377E-09
  268 6.94038555E-09
  269 7.05063002E-09
  270 6.96402745E-09
  271 7.01903866E-09
  272 7.00105635E-09
  273 7.05477397E-09
  274 7.11532271E-09
  275 7.23176890E-09
  276 7.03979084E-09
  277 7.09209935E-09
  278 7.08015589E-09
  279 7.13094376E-09
  280 7.14288879E-09
  281 7.19210918E-09
  282 7.18025081E-09
  283 7.22802958E-09
  284 7.12206882E-09
  285 7.17122925E-09
  286 7.16543985E-09
  287 7.21287140E-09
  288 7.26168865E-09
  289 7.27970358E-09
  290 7.35648799E-09
  291 7.33921670E-09
  292 7.42088622E-09
  293 7.39614566E-09
  294 7.54473831E-09
  295 7.50340311E-09
  296 7.63616861E-09
  297 7.75754065E-09
  298 7.91147201E-09
  299 7.99569468E-09
  300 8.01701580E-09
  301 7.97922089E-09
  302 7.88848369E-09
  303 7.76115587E-09
  304 7.45817318E-09
  305 7.71533869E-09
  306 7.72190858E-09
  307 7.72648177E-09
  308 7.74357088E-09
  309 7.77674270E-09
  310 7.81572842E-09
  311 7.82417756E-09
  312 7.81546063E-09
  313 7.75624117E-09
  314 7.62380123E-09
  315 7.55357033E-09
  316 7.71796667E-09
  317 7.66872860E-09
  318 7.44278262E-09
  319 7.30912488E-09
  320 7.57194256E-09
  321 7.52085903E-09
  322 7.64028860E-09
  323 7.59626663E-09
  324 7.46486216E-09
  325 7.40400838E-09
  326 7.54795946E-09
  327 7.49544626E-09
  328 7.15302023E-09
  329 6.97793708E-09
  330 7.35627855E-09
  331 7.21937783E-09
  332 6.79269365E-09
  333 6.58448662E-09
  334 6.48124395E-09
  335 6.43855275E-09
  336 6.55501013E-09
  337 6.51412757E-09
  338 6.73137173E-09
  339 6.65162902E-09
  340 7.04067835E-09
  341 6.96286971E-09
  342 7.18240969E-09
  343 7.11550132E-09
  344 6.86676505E-09
  345 6.82879389E-09
  346 6.94547091E-09
  347 6.90999015E-09
  348 6.79226557E-09
  349 6.75755554E-09
  350 6.87585577E-09
  351 6.84341770E-09
  352 7.02581596E-09
  353 6.99291760E-09
  354 7.10755826E-09
  355 7.07732150E-09
  356 6.96126786E-09
  357 6.93118996E-09
  358 7.04823458E-09
  359 7.02059292E-09
  360 6.39860843E-09
  361 6.36188588E-09
  362 6.47586477E-09
  363 6.44067779E-09
  364 6.35380930E-09
  365 6.58071681E-09
  366 6.52199605E-09
  367 6.30611036E-09
  368 6.24173757E-09
  369 6.23280249E-09
  370 6.32544112E-09
  371 6.31684712E-09
  372 6.47858980E-09
  373 6.45300502E-09
  374 6.75396437E-09
  375 6.70190138E-09
  376 6.93592840E-09
  377 6.89113863E-09
  378 6.74701044E-09
  379 6.22939157E-09
  380 6.23155285E-09
  381 6.31354647E-09
  382 6.31558608E-09
  383 6.28637791E-09
  384 6.44678637E-09
  385 6.46028746E-09
  386 6.35470001E-09
  387 6.41137702E-09
  388 6.53008869E-09
  389 6.52303650E-09
  390 6.55343917E-09
  391 6.61182914E-09
  392 6.64059777E-09
  393 6.77924897E-09
  394 6.71730444E-09
  395 6.70330958E-09
  396 6.73035615E-09
  397 6.79715962E-09
  398 6.82240548E-09
  399 6.91371712E-09
  400 6.95251344E-09
  401 6.48428924E-09
  402 6.56978935E-09
  403 6.58742545E-09
  404 6.62456558E-09
  405 6.67276458E-09
  406 6.70792291E-09
  407 6.72499760E-09
  408 6.60434330E-09
  409 6.65416752E-09
  410 6.67616492E-09
  411 6.72385403E-09
  412 6.70514608E-09
  413 6.75688884E-09
  414 6.77264775E-09
  415 6.82217315E-09
  416 6.81055823E-09
  417 6.90100572E-09
  418 6.76060712E-09
  419 6.79368072E-09
  420 6.85065460E-09
  421 6.88155167E-09
  422 6.88966969E-09
  423 7.00265282E-09
  424 7.06165743E-09
  425 7.08259673E-09
  426 6.86588064E-09
  427 6.96772935E-09
  428 6.99358971E-09
  429 7.08606348E-09
  430 7.06747776E-09
  431 7.16372343E-09
  432 7.17669316E-09
  433 7.26421396E-09
  434 7.23571822E-09
  435 7.38660233E-09
  436 7.25550768E-09
  437 7.34222814E-09
  438 7.34775887E-09
  439 7.42677896E-09
  440 7.37417941E-09
  441 7.41417095E-09
  442 7.41291390E-09
  443 7.45125600E-09
  444 7.45274804E-09
  445 7.48991228E-09
  446 7.48824885E-09
  447 7.52389343E-09
  448 7.45250512E-09
  449 7.48913584E-09
  450 7.49286918E-09
  451 7.52773242E-09
  452 7.52448703E-09
  453 7.55855873E-09
  454 7.56138994E-09
  455 7.59384064E-09
  456 7.52668685E-09
  457 7.57087071E-09
  458 7.63293383E-09
  459 7.65324472E-09
  460 7.70804952E-09
  461 7.55885874E-09
  462 7.62352925E-09
  463 7.62370780E-09
  464 7.68287821E-09
  465 7.73654033E-09
  466 7.75042548E-09
  467 7.84334554E-09
  468 7.91282278E-09
  469 8.02321658E-09
  470 8.07641561E-09
  471 8.07392151E-09
  472 8.01509709E-09
  473 7.90255079E-09
  474 7.75242393E-09
  475 7.59717544E-09
  476 7.48511295E-09
  477 7.45233069E-09
  478 7.39017963E-09
  479 7.45508041E-09
  480 7.69332327E-09
  481 7.46648624E-09
  482 7.69186680E-09
  483 7.70223912E-09
  484 7.70313429E-09
  485 7.69609315E-09
  486 7.69143423E-09
  487 7.69920525E-09
  488 7.69408721E-09
  489 7.68162326E-09
  490 7.67072985E-09
  491 7.69105900E-09
  492 7.69272631E-09
  493 7.66337902E-09
  494 7.66225303E-09
  495 7.70105136E-09
  496 7.71683248E-09
  497 7.67542775E-09
  498 7.68169977E-09
  499 7.65857297E-09
  500 7.66498972E-09
  501 7.69032017E-09
  502 7.70122429E-09
  503 7.67409275E-09
  504 7.68581308E-09
  505 7.73959470E-09
  506 7.76770103E-09
  507 7.71485380E-09
  508 7.74948256E-09
  509 7.79864957E-09
  510 7.82946849E-09
  511 7.78204384E-09
  512 7.80105519E-09
  513 7.77499888E-09
  514 7.79633595E-09
  515 7.82006550E-09
  516 7.83865914E-09
  517 7.81782000E-09
  518 7.83901215E-09
  519 7.85710747E-09
  520 7.86251329E-09
  521 7.86720378E-09
  522 7.88465099E-09
  523 7.89843601E-09
  524 7.89547100E-09
  525 7.81013825E-09
  526 7.78801797E-09
  527 7.90765109E-09
  528 7.90845683E-09
  529 7.70976317E-09
  530 7.66374347E-09
  531 7.64350431E-09
  532 7.70141355E-09
  533 7.68310019E-09
  534 7.77988587E-09
  535 7.73923808E-09
  536 7.72286664E-09
  537 7.77715088E-09
  538 7.76273188E-09
  539 7.62232088E-09
  540 7.60020531E-09
  541 7.66392809E-09
  542 7.64391124E-09
  543 7.58879784E-09
  544 7.70572311E-09
  545 7.68782346E-09
  546 7.74762815E-09
  547 7.73185772E-09
  548 7.68328821E-09
  549 7.85018933E-09
  550 7.82837312E-09
  551 7.92022637E-09
  552 7.90587659E-09
  553 7.80430671E-09
  554 7.77816047E-09
  555 7.88996292E-09
  556 7.87268910E-09
  557 7.57125462E-09
  558 7.43858820E-09
  559 7.38390622E-09
  560 7.56377118E-09
  561 7.52050330E-09
  562 7.79022465E-09
  563 7.68964207E-09
  564 7.63227580E-09
  565 7.61482299E-09
  566 7.69949827E-09
  567 7.68498733E-09
  568 7.81506887E-09
  569 7.76652660E-09
  570 7.75494821E-09
  571 7.83321374E-09
  572 7.82454865E-09
  573 7.32824156E-09
  574 7.27279805E-09
  575 7.47658982E-09
  576 7.43297140E-09
  577 7.19045390E-09
  578 7.16294495E-09
  579 7.27425902E-09
  580 7.24953106E-09
  581 7.13648627E-09
  582 7.11134451E-09
  583 7.22575315E-09
  584 7.20316248E-09
  585 7.39081308E-09
  586 7.35148879E-09
  587 7.59731485E-09
  588 7.57984393E-09
  589 7.67045880E-09
  590 7.65598868E-09
  591 7.56251293E-09
  592 7.54543478E-09
  593 7.64166041E-09
  594 7.62756497E-09
  595 7.74338997E-09
  596 7.73191135E-09
  597 7.81594109E-09
  598 7.80743413E-09
  599 7.72057662E-09
  600 7.70945485E-09
  601 7.79907298E-09
  602 7.79090497E-09
  603 7.52873233E-09
  604 7.51253759E-09
  605 7.61380061E-09
  606 7.60047235E-09
  607 7.49699051E-09
  608 7.48223713E-09
  609 7.58769100E-09
  610 7.57557185E-09
  611 7.69861979E-09
  612 7.68814951E-09
  613 7.78297949E-09
  614 7.77534781E-09
  615 7.67812575E-09
  616 7.66863305E-09
  617 7.76806279E-09
  618 7.76117845E-09
  619 7.12424558E-09
  620 7.08718737E-09
  621 7.31652458E-09
  622 7.28749350E-09
  623 7.05965816E-09
  624 7.04322210E-09
  625 7.26586649E-09
  626 7.25283959E-09
  627 7.51042704E-09
  628 7.48955882E-09
  629 7.70373360E-09
  630 7.69101396E-09
  631 7.42556712E-09
  632 7.41861745E-09
  633 7.52899382E-09
  634 7.52324155E-09
  635 7.41339326E-09
  636 7.46398965E-09
  637 7.57420681E-09
  638 7.57093905E-09
  639 7.63211551E-09
  640 7.62755603E-09
  641 7.73464828E-09
  642 7.73127167E-09
  643 7.68008680E-09
  644 7.67733475E-09
  645 7.78511884E-09
  646 7.78287554E-09
  647 7.19623052E-09
  648 7.11656544E-09
  649 7.14845734E-09
  650 7.32307000E-09
  651 7.29034773E-09
  652 7.30576272E-09
  653 7.39144125E-09
  654 7.40479606E-09
  655 7.51563394E-09
  656 7.51953650E-09
  657 7.72856766E-09
  658 7.73028668E-09
  659 7.53053449E-09
  660 7.49259781E-09
  661 7.50388416E-09
  662 7.59351203E-09
  663 7.60273083E-09
  664 7.73642831E-09
  665 7.69389137E-09
  666 7.70105220E-09
  667 7.79345765E-09
  668 7.79857822E-09
  669 7.18984277E-09
  670 7.23871941E-09
  671 7.32310007E-09
  672 7.34215381E-09
  673 7.41984916E-09
  674 7.43642647E-09
  675 7.41860429E-09
  676 7.40278147E-09
  677 7.51664443E-09
  678 7.53073661E-09
  679 7.61319976E-09
  680 7.62480897E-09
  681 7.59912564E-09
  682 7.70924087E-09
  683 7.71837952E-09
  684 7.80450662E-09
  685 7.81119674E-09
  686 7.77822389E-09
  687 7.72863118E-09
  688 7.50994928E-09
  689 7.61743393E-09
  690 7.78830053E-09
  691 7.77449002E-09
  692 7.81130221E-09
  693 7.89589799E-09
  694 7.88740933E-09
  695 7.89225992E-09
  696 7.93429453E-09
  697 7.94614892E-09
  698 7.70914397E-09
  699 7.80139233E-09
  700 7.83762558E-09
  701 7.87255228E-09
  702 7.90656689E-09
  703 7.92077913E-09
  704 7.95803679E-09
  705 7.96992289E-09
  706 7.96480421E-09
  707 7.96267881E-09
  708 7.98092498E-09
  709 8.08158795E-09
  710 8.14399965E-09
  711 8.16514389E-09
  712 8.14056705E-09
  713 8.06513093E-09
  714 7.93872671E-09
  715 7.77298093E-09
  716 7.60267595E-09
  717 7.47992443E-09
  718 7.44439779E-09
  719 7.49827956E-09
  720 7.61348623E-09
  721 7.75626062E-09
  722 7.26868163E-09
  723 7.37981382E-09
  724 7.43718739E-09
  725 7.39637768E-09
  726 7.45312657E-09
  727 7.47904933E-09
  728 7.68939485E-09
  729 7.69248869E-09
  730 7.69005992E-09
  731 7.69182146E-09
  732 7.48069677E-09
  733 7.68693721E-09
  734 7.48837316E-09
  735 7.68980195E-09
  736 7.69006795E-09
  737 7.69134011E-09
  738 7.69088728E-09
  739 7.69181608E-09
  740 7.69168382E-09
  741 7.69115201E-09
  742 7.69179219E-09
  743 7.69086967E-09
  744 7.69183613E-09
  745 7.69241142E-09
  746 7.69292448E-09
  747 7.69313670E-09
  748 7.69200953E-09
  749 7.69068563E-09
  750 7.69234708E-09
  751 7.69061185E-09
  752 7.69249767E-09
  753 7.68985806E-09
  754 7.69032756E-09
  755 7.68603936E-09
  756 7.68505136E-09
  757 7.67860070E-09
  758 7.67946931E-09
  759 7.67117800E-09
  760 7.68980110E-09
  761 7.68769101E-09
  762 7.68910624E-09
  763 7.68656335E-09
  764 7.68233029E-09
  765 7.68849872E-09
  766 7.68551173E-09
  767 7.68799126E-09
  768 7.68454969E-09
  769 7.67882872E-09
  770 7.67745810E-09
  771 7.67298091E-09
  772 7.67492858E-09
  773 7.66995688E-09
  774 7.66809605E-09
  775 7.66288314E-09
  776 7.66456813E-09
  777 7.65884486E-09
  778 7.67243916E-09
  779 7.66696032E-09
  780 7.67000604E-09
  781 7.66400835E-09
  782 7.66105475E-09
  783 7.65480792E-09
  784 7.65757400E-09
  785 7.65079144E-09
  786 7.67106412E-09
  787 7.66302440E-09
  788 7.66176735E-09
  789 7.65186986E-09
  790 7.65507535E-09
  791 7.64780508E-09
  792 7.64769115E-09
  793 7.64319715E-09
  794 7.64131421E-09
  795 7.63637191E-09
  796 7.63893577E-09
  797 7.63498297E-09
  798 7.63168040E-09
  799 7.62731939E-09
  800 7.65742426E-09
  801 7.65180353E-09
  802 7.65287227E-09
  803 7.64673784E-09
  804 7.64610661E-09
  805 7.64042011E-09
  806 7.64053075E-09
  807 7.63434133E-09
  808 7.64830825E-09
  809 7.64164661E-09
  810 7.64375230E-09
  811 7.63655096E-09
  812 7.63491581E-09
  813 7.62820998E-09
  814 7.62928392E-09
  815 7.62204919E-09
  816 7.63483097E-09
  817 7.62942576E-09
  818 7.62826036E-09
  819 7.62237835E-09
  820 7.62428995E-09
  821 7.61950709E-09
  822 7.61678474E-09
  823 7.61156707E-09
  824 7.62162385E-09
  825 7.61525197E-09
  826 7.61494556E-09
  827 7.60807173E-09
  828 7.60918789E-09
  829 7.60352324E-09
  830 7.60152546E-09
  831 7.59540260E-09
  832 7.64223180E-09
  833 7.63814488E-09
  834 7.62612416E-09
  835 7.62079186E-09
  836 7.63626133E-09
  837 7.63695260E-09
  838 7.61795053E-09
  839 7.61801339E-09
  840 7.61551242E-09
  841 7.61175921E-09
  842 7.60681009E-09
  843 7.60301406E-09
  844 7.60263370E-09
  845 7.59834682E-09
  846 7.59414186E-09
  847 7.58979612E-09
  848 7.58517147E-09
  849 7.58385647E-09
  850 7.58794460E-09
  851 7.64395218E-09
  852 7.64647230E-09
  853 7.63463386E-09
  854 7.63713705E-09
  855 7.64972806E-09
  856 7.65372450E-09
  857 7.64042218E-09
  858 7.64449464E-09
  859 7.62504386E-09
  860 7.62752688E-09
  861 7.61520112E-09
  862 7.61766103E-09
  863 7.63083961E-09
  864 7.63498775E-09
  865 7.62099985E-09
  866 7.62522359E-09
  867 7.65845947E-09
  868 7.66392375E-09
  869 7.64935222E-09
  870 7.65498524E-09
  871 7.66918474E-09
  872 7.63996900E-09
  873 7.64577317E-09
  874 7.63032980E-09
  875 7.63630771E-09
  876 7.65145314E-09
  877 7.60110449E-09
  878 7.60785773E-09
  879 7.58016504E-09
  880 7.58701251E-09
  881 7.61844786E-09
  882 7.63278182E-09
  883 7.59812279E-09
  884 7.61339024E-09
  885 7.68540566E-09
  886 7.72711615E-09
  887 7.65063218E-09
  888 7.67165435E-09
  889 7.63256102E-09
  890 7.65525331E-09
  891 7.69540958E-09
  892 7.72139118E-09
  893 7.67807213E-09
  894 7.69133697E-09
  895 7.67049993E-09
  896 7.68429973E-09
  897 7.70517137E-09
  898 7.71950214E-09
  899 7.69869961E-09
  900 7.71362327E-09
  901 7.76707202E-09
  902 7.78644010E-09
  903 7.79810836E-09
  904 7.78318376E-09
  905 7.79548268E-09
  906 7.75837324E-09
  907 7.77975622E-09
  908 7.79269483E-09
  909 7.77617538E-09
  910 7.78976212E-09
  911 7.80981122E-09
  912 7.82149131E-09
  913 7.80783312E-09
  914 7.82017604E-09
  915 7.83871714E-09
  916 7.80570153E-09
  917 7.81871553E-09
  918 7.80343310E-09
  919 7.81712573E-09
  920 7.83167810E-09
  921 7.84453299E-09
  922 7.83077971E-09
  923 7.84433742E-09
  924 7.74905200E-09
  925 7.77246156E-09
  926 7.78670418E-09
  927 7.76863761E-09
  928 7.78354305E-09
  929 7.73930016E-09
  930 7.77068529E-09
  931 7.80104673E-09
  932 7.81542475E-09
  933 7.79856360E-09
  934 7.81363287E-09
  935 7.82977631E-09
  936 7.84404241E-09
  937 7.82868724E-09
  938 7.84366631E-09
  939 7.79600722E-09
  940 7.81177255E-09
  941 7.79340341E-09
  942 7.80986849E-09
  943 7.83497917E-09
  944 7.86197524E-09
  945 7.88423472E-09
  946 7.86394867E-09
  947 7.88911532E-09
  948 7.90493323E-09
  949 7.86552375E-09
  950 7.89362982E-09
  951 7.86683487E-09
  952 7.89789534E-09
  953 7.93396587E-09
  954 7.95978769E-09
  955 7.93210556E-09
  956 7.94658251E-09
  957 7.93529324E-09
  958 7.95053327E-09
  959 7.96065449E-09
  960 7.97429434E-09
  961 7.96537329E-09
  962 7.97978671E-09
  963 7.94202324E-09
  964 7.97105189E-09
  965 7.95458557E-09
  966 7.97596525E-09
  967 7.96829586E-09
  968 7.99282902E-09
  969 8.01537055E-09
  970 7.99153531E-09
  971 7.99816691E-09
  972 8.04397491E-09
  973 8.04884582E-09
  974 8.05986903E-09
  975 8.08349657E-09
  976 8.09866963E-09
  977 8.00382335E-09
  978 8.02728778E-09
  979 8.06960992E-09
  980 8.07831217E-09
  981 8.09895535E-09
  982 8.10528786E-09
  983 8.11976764E-09
  984 8.12723433E-09
  985 8.11144555E-09
  986 8.11746704E-09
  987 8.13457006E-09
  988 8.14181640E-09
  989 8.08624736E-09
  990 8.11754454E-09
  991 8.13951885E-09
  992 8.17647790E-09
  993 8.02227719E-09
  994 8.01449630E-09
  995 8.16266828E-09
  996 8.18518013E-09
  997 8.00593895E-09
  998 7.93898992E-09
  999 7.93010867E-09
  1000 8.06042630E-09
  1001 8.06254858E-09
  1002 8.21206496E-09
  1003 8.24471504E-09
  1004 7.88795172E-09
  1005 7.88238660E-09
  1006 7.95926860E-09
  1007 7.95660612E-09
  1008 7.91371778E-09
  1009 8.06540564E-09
  1010 8.06889527E-09
  1011 7.90647973E-09
  1012 7.90001400E-09
  1013 8.07280522E-09
  1014 8.07682006E-09
  1015 8.28247754E-09
  1016 8.32163016E-09
  1017 7.89439192E-09
  1018 7.88967154E-09
  1019 8.08054651E-09
  1020 8.08355905E-09
  1021 7.83632204E-09
  1022 7.89133755E-09
  1023 7.93688136E-09
  1024 7.99302508E-09
  1025 7.88902093E-09
  1026 7.88727722E-09
  1027 7.99152870E-09
  1028 7.99027337E-09
  1029 8.14251163E-09
  1030 8.14189925E-09
  1031 8.35518844E-09
  1032 8.42855884E-09
  1033 7.88612049E-09
  1034 7.88556234E-09
  1035 7.98926485E-09
  1036 7.98851240E-09
  1037 7.88561158E-09
  1038 7.88627397E-09
  1039 7.98802854E-09
  1040 7.98782868E-09
  1041 8.09074950E-09
  1042 8.08980387E-09
  1043 8.19034406E-09
  1044 8.18920685E-09
  1045 8.08879509E-09
  1046 8.08774804E-09
  1047 8.18768286E-09
  1048 8.18580620E-09
  1049 7.93844672E-09
  1050 7.94170664E-09
  1051 8.13454782E-09
  1052 8.13099680E-09
  1053 8.33513181E-09
  1054 8.33059257E-09
  1055 8.52042884E-09
  1056 8.51398226E-09
  1057 8.40761894E-09
  1058 7.94689388E-09
  1059 7.95401248E-09
  1060 8.12759029E-09
  1061 8.12480788E-09
  1062 8.04609252E-09
  1063 8.37692483E-09
  1064 8.34351367E-09
  1065 8.05966660E-09
  1066 8.01526997E-09
  1067 7.99017350E-09
  1068 7.99954860E-09
  1069 8.04542128E-09
  1070 8.05235465E-09
  1071 8.12253609E-09
  1072 8.12851374E-09
  1073 8.25688836E-09
  1074 8.24944338E-09
  1075 8.38395018E-09
  1076 8.36669921E-09
  1077 8.23516570E-09
  1078 8.23166950E-09
  1079 8.31959975E-09
  1080 8.31383617E-09
  1081 8.37345074E-09
  1082 8.36545668E-09
  1083 8.30870641E-09
  1084 8.30420494E-09
  1085 8.35816101E-09
  1086 8.35156253E-09
  1087 8.00904666E-09
  1088 8.01863462E-09
  1089 8.05949882E-09
  1090 8.06682287E-09
  1091 8.05566029E-09
  1092 8.13589488E-09
  1093 8.14445941E-09
  1094 8.12055684E-09
  1095 8.23021014E-09
  1096 8.23060190E-09
  1097 8.30031810E-09
  1098 8.29702538E-09
  1099 8.34565066E-09
  1100 8.34040692E-09
  1101 8.29430062E-09
  1102 8.29211312E-09
  1103 8.33580621E-09
  1104 8.33181814E-09
  1105 8.23259846E-09
  1106 8.23591779E-09
  1107 8.30843649E-09
  1108 8.30525287E-09
  1109 8.14805418E-09
  1110 8.17444660E-09
  1111 8.27332846E-09
  1112 8.27933140E-09
  1113 8.24941501E-09
  1114 8.26579658E-09
  1115 8.25771681E-09
  1116 8.21546200E-09
  1117 8.13017476E-09
  1118 7.99946257E-09
  1119 7.83070746E-09
  1120 7.65760516E-09
  1121 7.53175768E-09
  1122 7.49337925E-09
  1123 7.54504529E-09
  1124 7.65846486E-09
  1125 7.79951922E-09
  1126 7.94379740E-09
  1127 7.07252358E-09
  1128 7.30622605E-09
  1129 7.41598315E-09
  1130 7.47135877E-09
  1131 7.43905842E-09
  1132 7.49226208E-09
  1133 7.49650716E-09
  1134 7.69330087E-09
  1135 7.50514597E-09
  1136 7.69751741E-09
  1137 7.69480108E-09
  1138 7.69281698E-09
  1139 7.69066128E-09
  1140 7.69343227E-09
  1141 7.69084787E-09
  1142 7.69713717E-09
  1143 7.69621018E-09
  1144 7.69889798E-09
  1145 7.69757743E-09
  1146 7.69316307E-09
  1147 7.69890873E-09
  1148 7.70254546E-09
  1149 7.70618073E-09
  1150 7.70675542E-09
  1151 7.70674056E-09
  1152 7.71015268E-09
  1153 7.70977779E-09
  1154 7.70085937E-09
  1155 7.69913997E-09
  1156 7.70303583E-09
  1157 7.70091339E-09
  1158 7.69629514E-09
  1159 7.69238574E-09
  1160 7.69764134E-09
  1161 7.69328130E-09
  1162 7.70544265E-09
  1163 7.70291415E-09
  1164 7.70809580E-09
  1165 7.70515947E-09
  1166 7.69921226E-09
  1167 7.69439931E-09
  1168 7.70102649E-09
  1169 7.69575984E-09
  1170 7.68759766E-09
  1171 7.68369194E-09
  1172 7.68733286E-09
  1173 7.68295445E-09
  1174 7.67565336E-09
  1175 7.68476957E-09
  1176 7.67294513E-09
  1177 7.66316563E-09
  1178 7.65414585E-09
  1179 7.64681649E-09
  1180 7.65079214E-09
  1181 7.64290619E-09
  1182 7.65832514E-09
  1183 7.64162604E-09
  1184 7.68473392E-09
  1185 7.67086786E-09
  1186 7.68553454E-09
  1187 7.66960808E-09
  1188 7.65936304E-09
  1189 7.65063856E-09
  1190 7.65769737E-09
  1191 7.64841157E-09
  1192 7.64142487E-09
  1193 7.63182567E-09
  1194 7.63862580E-09
  1195 7.62844684E-09
  1196 7.65624636E-09
  1197 7.64639807E-09
  1198 7.65503895E-09
  1199 7.64462909E-09
  1200 7.63603915E-09
  1201 7.62527939E-09
  1202 7.63369805E-09
  1203 7.62235865E-09
  1204 7.63298089E-09
  1205 7.61682226E-09
  1206 7.62363936E-09
  1207 7.60521873E-09
  1208 7.60104763E-09
  1209 7.59382655E-09
  1210 7.58723534E-09
  1211 7.58612345E-09
  1212 7.57905498E-09
  1213 7.58725929E-09
  1214 7.57066977E-09
  1215 7.61479059E-09
  1216 7.59406028E-09
  1217 7.60670929E-09
  1218 7.58365352E-09
  1219 7.57386959E-09
  1220 7.55519991E-09
  1221 7.56121695E-09
  1222 7.54045475E-09
  1223 7.58118924E-09
  1224 7.57578149E-09
  1225 7.57256088E-09
  1226 7.56673864E-09
  1227 7.56470153E-09
  1228 7.55633815E-09
  1229 7.55263011E-09
  1230 7.54813540E-09
  1231 7.54289911E-09
  1232 7.53839163E-09
  1233 7.55856825E-09
  1234 7.55644469E-09
  1235 7.54461220E-09
  1236 7.54213519E-09
  1237 7.53456556E-09
  1238 7.53183526E-09
  1239 7.54076931E-09
  1240 7.54056893E-09
  1241 7.53026853E-09
  1242 7.52992204E-09
  1243 7.54694710E-09
  1244 7.53984853E-09
  1245 7.53865083E-09
  1246 7.53112110E-09
  1247 7.53363048E-09
  1248 7.52874269E-09
  1249 7.52451160E-09
  1250 7.51924262E-09
  1251 7.53055976E-09
  1252 7.52259897E-09
  1253 7.52272950E-09
  1254 7.51433972E-09
  1255 7.51559839E-09
  1256 7.50966385E-09
  1257 7.50695028E-09
  1258 7.50067108E-09
  1259 7.52461181E-09
  1260 7.52162688E-09
  1261 7.51480638E-09
  1262 7.51156672E-09
  1263 7.51985856E-09
  1264 7.51936588E-09
  1265 7.50959719E-09
  1266 7.50895915E-09
  1267 7.49853342E-09
  1268 7.49954626E-09
  1269 7.49876463E-09
  1270 7.48977145E-09
  1271 7.48884897E-09
  1272 7.55873616E-09
  1273 7.56567788E-09
  1274 7.54157712E-09
  1275 7.54382519E-09
  1276 7.53084065E-09
  1277 7.53305680E-09
  1278 7.54419884E-09
  1279 7.57732575E-09
  1280 7.59355889E-09
  1281 7.55640380E-09
  1282 7.57363284E-09
  1283 7.52019543E-09
  1284 7.52238079E-09
  1285 7.50970090E-09
  1286 7.51185711E-09
  1287 7.52594217E-09
  1288 7.53088637E-09
  1289 7.51544845E-09
  1290 7.52048150E-09
  1291 7.49942057E-09
  1292 7.50154981E-09
  1293 7.48942186E-09
  1294 7.49152682E-09
  1295 7.50517340E-09
  1296 7.51029766E-09
  1297 7.49518522E-09
  1298 7.50040303E-09
  1299 7.53720682E-09
  1300 7.54488400E-09
  1301 7.52694889E-09
  1302 7.53482968E-09
  1303 7.55388603E-09
  1304 7.56416943E-09
  1305 7.54409002E-09
  1306 7.55468400E-09
  1307 7.51691429E-09
  1308 7.52500087E-09
  1309 7.50717100E-09
  1310 7.51546511E-09
  1311 7.53452151E-09
  1312 7.54542776E-09
  1313 7.52524733E-09
  1314 7.53646661E-09
  1315 7.61409346E-09
  1316 7.63850620E-09
  1317 7.59556854E-09
  1318 7.62174219E-09
  1319 7.66286897E-09
  1320 7.67720997E-09
  1321 7.65521918E-09
  1322 7.67010669E-09
  1323 7.69218139E-09
  1324 7.70770369E-09
  1325 7.68565467E-09
  1326 7.70178026E-09
  1327 7.65156882E-09
  1328 7.68438602E-09
  1329 7.57568011E-09
  1330 7.58835445E-09
  1331 7.56655467E-09
  1332 7.57963524E-09
  1333 7.60212059E-09
  1334 7.61689964E-09
  1335 7.59385037E-09
  1336 7.60911756E-09
  1337 7.55765973E-09
  1338 7.57114733E-09
  1339 7.54906003E-09
  1340 7.56295416E-09
  1341 7.58581171E-09
  1342 7.60156667E-09
  1343 7.57806655E-09
  1344 7.59430724E-09
  1345 7.63260713E-09
  1346 7.64915430E-09
  1347 7.62534860E-09
  1348 7.64245096E-09
  1349 7.67241400E-09
  1350 7.61832020E-09
  1351 7.63597597E-09
  1352 7.61158039E-09
  1353 7.62978585E-09
  1354 7.66123723E-09
  1355 7.72935375E-09
  1356 7.76338437E-09
  1357 7.71949313E-09
  1358 7.75618747E-09
  1359 7.79822348E-09
  1360 7.83328498E-09
  1361 7.79379547E-09
  1362 7.83169738E-09
  1363 7.71004108E-09
  1364 7.74939152E-09
  1365 7.70135855E-09
  1366 7.74332655E-09
  1367 7.78974870E-09
  1368 7.83045909E-09
  1369 7.77648402E-09
  1370 7.79782489E-09
  1371 7.77468987E-09
  1372 7.80688249E-09
  1373 7.82994973E-09
  1374 7.85179881E-09
  1375 7.82945658E-09
  1376 7.85199550E-09
  1377 7.86804519E-09
  1378 7.91481228E-09
  1379 7.88132207E-09
  1380 7.91897042E-09
  1381 7.93846296E-09
  1382 7.95446228E-09
  1383 7.94163385E-09
  1384 7.95838720E-09
  1385 7.97006579E-09
  1386 7.98524743E-09
  1387 7.97474815E-09
  1388 7.99069118E-09
  1389 7.95541977E-09
  1390 7.99037829E-09
  1391 7.88284734E-09
  1392 7.92339821E-09
  1393 7.88494106E-09
  1394 7.92830661E-09
  1395 7.95136380E-09
  1396 7.97033152E-09
  1397 7.95475514E-09
  1398 7.97443937E-09
  1399 7.98891265E-09
  1400 8.00708334E-09
  1401 7.99373761E-09
  1402 8.01262654E-09
  1403 7.95826061E-09
  1404 7.97864755E-09