# File generated by Flopy version 3.9.1 on 02/09/2026 at 23:02:27.
BEGIN options
END options

BEGIN timing
  TDIS6  triangle_caseB.tdis
END timing

BEGIN models
  gwf6  triangle_caseB.nam  triangle_caseB
END models

BEGIN exchanges
END exchanges

BEGIN solutiongroup  1
  ims6  triangle_caseB.ims  triangle_caseB
END solutiongroup  1

