# File generated by Flopy version 3.9.1 on 02/09/2026 at 23:02:28.
BEGIN options
END options

BEGIN griddata
  strt  LAYERED
    INTERNAL  FACTOR  1.0
           0.46627740       1.27980990       1.51408227       1.23753461       0.50237150       0.48775770       1.25399730       2.86058461       2.15466108       1.25652963       0.45662536       0.45876879       1.80163960       1.55242177       0.48390793       0.48412000       2.15719721       0.47610358       0.52736391       0.45948747
           0.55270909       2.80115472       1.25720637       0.49978634       0.54178072       2.00176571       1.78993943       0.52351672       1.23206851       0.52531836       0.52187353       0.81292468       0.52129353       0.51748688       0.28556327       0.75610996       0.84014107       0.49118762       1.50275419       0.51938249
           2.93011490       0.50431440       0.85093795       0.50567747       0.71430163       0.38302683       0.86940340       0.49683796       0.44273514       0.48392284       0.46101069       0.45650051       0.39159333       1.09957238       0.45669425       0.55706092       0.52168733       0.45981087       0.46581401       0.46798683
           0.48502800       0.47826043       1.17786961       0.22481415       0.45631964       1.45399271       0.22293744       0.23342010       0.23330483       0.22141926       0.21833760       0.48143976       0.25366910       0.22976378       0.24689448       0.19865482       0.18916157       0.20721435       0.18084915       0.18355413
           0.14715727       0.16346126       0.19817727       0.14243529       0.18699781       0.12059147       0.22288593       0.20090679       0.47678447       0.14452779       0.49385773       0.43733492       1.99828618       1.18590333       1.72627301       1.48600234       1.75075104       1.84751119       1.89908301       1.10013384
           0.48491629       2.93709360       0.30705971       0.81304170       1.86816509       0.30339351       1.49387110       0.81366587       0.88903899       0.47720743       1.86581878       0.47614187       1.04843793       0.88257877       0.97350378       0.95322059       0.96030531       0.90493790       1.05386359       1.06197112
           1.07563691       1.03171453       1.11348274       1.04421997       0.92467551       0.94410438       0.93813236       0.90975641       0.97486597       0.98258138       1.03822724       0.97510816       0.96457193       0.96673075       0.97332827       1.06011888       0.80653256       0.87794574       0.84911211       0.81526585
           0.84697015       0.81164124       0.88863109       0.88730792       0.90329412       0.88266718       0.83321887       0.89653507       0.80369076       0.79856102       0.83934172       0.77230749       0.86208268       0.88852982       0.88072917       0.86898167       0.86376104       0.87120748       0.90467384       0.79513369
           0.93933205       0.93007253       0.94803269       0.92588772       0.95652932       0.95582466       0.96492926       0.94953747       0.95715992       0.94296731       0.88194349       0.90598071       0.91357582       0.90561600       0.91869434       0.91042682       0.91244317       0.91177081       0.94986313       0.88021860
           0.96407450       0.91541318       0.90036413       0.92621902       1.07119016       0.49144954       1.81659810       0.78326987       0.50855914       0.52179541       0.55102373       0.55907503       0.57900817       0.52717036       0.58344173       0.57202019       0.55841043       0.57277896       0.52249423       0.52327099
           0.54374201       0.52495628       0.55044089       0.53786623       0.56406322       0.53359224       0.53924889       0.54651285       0.57606392       0.47857352       0.60139327       0.59491381       0.60918644       0.60409749       0.61627300       0.58143675       0.70242905       0.61449578       0.56732622       0.71213347
           0.60065898       0.61226610       0.62210024       0.60599990       0.69188538       0.64281535       0.71163270       0.61916939       0.68348763       0.57800425       0.72742320       0.59276600       0.55220456       0.65678350       0.48986758       0.53273617       0.55026579       0.50867962       0.57402051       0.55175976
           0.55929100       0.61790790       0.52057553       0.59507136       0.51674983       0.50775558       0.60097844       0.49197139       0.66921575       0.61610019       0.57318437       0.61048598       0.57772229       0.61643217       0.66756602       0.48622452       0.57797560       0.56000478       0.58330103       0.62337479
           0.59252109       0.55667073       0.61873230       0.59514785       0.60067995       0.60918190       0.66796903       0.67173979       0.68303198       0.63888794       0.69702924       0.65229614       0.71438445       0.68647654       0.68817403       0.66024679       0.68424544       0.56603806       0.54267736       0.70897344
           0.71729471       0.41302887       0.74706661       0.71587919       0.75523985       0.74861858       0.77080339       0.76076185       0.77490139       0.78464712       0.80380059       0.76007586       0.74870374       0.72634874       0.76868121       0.74426406       0.80489421       0.78536043       0.80154383       0.82289970
           0.79222823       0.79303891       0.80607340       0.73077671       0.85313283       0.85771226       0.87402857       0.83381367       0.89669061       0.90078405       0.90455333       0.87727281       0.86597664       0.89095229       0.82716842       0.82242147       0.84021793       0.83242655       0.88095476       0.82256059
           0.89043451       0.87904997       0.85610576       0.89963599       0.90801982       0.83596172       0.82288954       0.85159843       0.74236103       0.73677512       0.74435660       0.74269769       0.79065536       0.77915591       0.79665846       0.77420957       0.76483559       0.77354139       0.73669318       0.72595944
           0.70493080       0.73146436       0.75420951       0.73056001       0.76029136       0.78146876       0.73160042       0.77152806       0.80052828       0.69941979       0.84315206       0.82829226       0.82194952       0.86624074       0.88703117       0.89161293       0.96555509       0.83760896       0.90031803       0.95997988
           0.83093027       0.81139979       0.84834698       0.82609880       0.86941962       0.83989978       0.84495907       0.86126108       0.97312250       0.84025261       0.87537893       0.81172565       0.87691954       0.75698932       0.91546737       0.71945986       0.86524591       0.87545689       0.97261906       0.51191981
           1.83986846       0.50012527       1.30304515       1.28206209       1.85304899       1.84801091       0.98054517       1.84451521       1.87947972       1.84946224       1.26150593       0.76417972       0.83996351       1.47574695       0.88564325       0.89037226       2.11845615       0.79526845       1.28041785       1.86338475
           0.96382144       0.91385807       0.93295054       1.01521638       1.49736380       1.54502256       1.62188311       0.93078183       1.67383615       1.05661530       0.94123774       0.92248091       0.96546734       0.92486316       0.97498549       1.00862806       1.08348308       1.02296710       0.97998715       0.88559018
           1.55619587       1.38433671       1.64496709       0.94372995       0.20512942       1.36836087       0.54598101       0.25343784       0.42468240       0.20872310       0.62136032       0.53813089       0.14384922       0.28202663       0.25561054       0.21559063       0.29293694       0.31818281       0.48662147       0.36687120
           0.49828635       0.36784446       0.19608299       0.50976585       0.52130418       0.17292496       0.71422581       0.80648248       0.79742598       0.68133892       0.85645770       0.85308551       0.90196148       0.95338056       0.98406740       0.82707278       0.68937007       0.64191997       0.73851922       0.61829047
           0.84060647       0.76574704       0.74043106       0.91560626       0.86521128       0.58538981       1.05314682       0.62616572       0.50146346       0.58879314       1.09290041       0.26134138       1.88865982       0.86378502       1.25455273       0.98622693       1.88134530       0.54142770       1.87876795       1.88231320
           0.51497206       1.88482446       1.66743850       2.04784384       1.57457615       1.68093903       1.96435459       2.11320164       1.89088987       2.14481264       0.86887691       1.68170105       1.87819179       0.55272239       1.87541288       1.87553868       1.87587962       1.87599564       1.87635984       1.87502537
           1.82443212       1.87560416       0.41064037       2.20263439       1.87730306       1.87579285       2.15398313       1.87625118       2.15793892       2.14413432       2.17273141       2.15777727       1.87655994       2.14018788       2.11412638       1.87518099       0.37800035       2.16813512       1.30607802       1.26957351
           1.30626684       1.35621250       2.07219096       1.40977814       2.10034646       2.09163571       1.37858928       2.04533438       1.30700379       1.31850582       1.15430821       0.96650992       1.44184548       1.35026087       1.41968363       1.42091031       1.34015412       2.04459868       2.07132699       1.20422269
           2.11414679       2.10017636       2.11690694       2.12460689       2.14194563       2.13256594       2.13202054       2.09380469       2.15059084       2.09739443       2.07961351       2.12927181       2.13045000       2.08681740       2.13794713       2.15305530       2.13883829       2.15104693       2.14156241       0.62282059
           2.16832518       2.08014491       2.13945483       0.82233935       1.52575183       1.26720307       1.52906782       1.55185563       1.13464793       1.15253783       1.13591649       1.12143845       1.08743964       1.08029078       1.06523803       1.11593794       1.14701665       1.09959076       1.11772123       1.12697686
           1.12052264       1.10224965       1.10701448       1.11902236       1.12918716       1.09378347       1.10614740       1.10922360       1.07345768       1.10254084       1.06440595       1.11160293       1.06304950       1.10941939       1.01029312       1.04100123       1.02070966       1.04088651       0.96073760       1.06500874
           1.04173230       1.10490434       1.06569330       1.07498007       1.04795982       1.02489054       1.05494708       1.05876144       1.05960217       1.05626596       0.98840392       1.13387031       1.12603906       0.99699174       1.08626783       1.08258578       1.06273247       1.06988647       1.08240241       1.10905008
           1.07437999       1.08896278       1.09692386       1.07280841       0.97164564       1.03719742       1.04862076       0.98144004       1.04142688       1.03561841       1.06214830       1.03587999       1.06961689       1.05156080       1.08944698       1.09012444       1.09170488       1.09974304       1.08898494       1.08532817
           1.08199625       1.08091821       1.01414300       1.06822972       1.09921907       1.08368388       1.04936128       1.06900302       1.06203668       1.04236098       1.05497611       1.07540153       1.06783795       1.07244043       1.07933815       1.06244657       1.05719360       1.08317203       1.09482631       1.05994171
           0.98335301       1.08914783       0.74809940       0.93174767       0.32040993       0.62685365       0.55805110       0.53551489       0.61431884       0.73761736       0.47527328       0.59110774       0.88987983       0.87422393       0.67160621       0.67041706       0.50318752       0.63287415       0.54733064       0.49337881
           0.45275501       0.64793931       0.43960548       0.80566272       0.36440123       0.20984447       0.36043142       0.40350791       0.44302112       0.42573606       0.51506283       0.43950248       0.50750842       0.49290589       0.43008171       0.51050657       0.45236056       0.44562257       0.47543972       0.40319669
           0.54406562       0.48842940       0.50569229       0.52538774       0.54421046       0.36410535       0.34643799       0.49991679       1.00749975       0.96109192       0.97512832       0.98524284       0.94115116       0.87746187       0.89786636       0.93696539       0.94737319       0.95557474       1.03626023       0.99041842
           1.01970863       0.92003642       1.00186607       0.91884873       0.90606627       0.98288891       0.97433263       0.95405733       0.84843993       0.95790520       0.71894301       0.77452538       0.68759072       0.92332664       0.54195925       0.52700216       0.56318816       0.51951865       0.51383236       0.50968852
           0.59288069       0.62252408       0.55713620       0.58407678       0.66107418       0.48550441       0.55951414       0.95901746       0.63838259       0.71118423       0.61511665       0.80768452       0.83130961       1.02166276       0.56591475       0.98484151       0.07797797       1.03647346       0.97998556       0.85964343
           0.34481208       2.06931481       0.67380976       0.68503958       0.68367995       0.69085923       0.67143472       0.68753886       0.65523237       0.69803150       0.64202340       0.64153388       2.75346523       0.64941780       0.65537869       0.64597104       0.70477290       0.65405343       0.67157779       0.65687719
           0.67972939       0.66778371       0.64517436       0.66036592       0.64932107       0.65447237       0.65565402       0.64786436       0.68071105       0.64662000       0.62182468       0.66561539       0.69811009       0.67187432       0.68069556       0.70068845       0.68700130       0.67620454       0.69187120       0.68810990
           0.66302268       0.70057495       0.66975268       0.66309506       0.63415628       0.68765881       0.59778922       0.61875872       0.59205227       0.60238286       0.62663288       0.61612057       0.62105704       0.60611796       0.61143905       0.62345112       0.64481126       0.58118412       0.61877420       0.63510717
           0.61825939       0.60801400       0.61462143       0.63189686       0.60937083       0.64877277       0.61914128       0.63212618       0.66507752       0.64667374       0.64464845       0.63779872       0.65172969       0.67408139       0.64413302       0.65942537       0.62093210       0.67517926       0.63911750       0.65108890
           0.65556477       0.64888484       0.67168255       0.66600030       0.67456201       0.66724541       0.65641836       0.63996922       0.69005114       0.62411983       0.66515433       0.67139577       0.70872184       0.56609322       0.58266640       0.59946895       0.59875437       0.61301381       0.58355625       0.56755192
           0.57030127       0.56119399       0.60151078       0.61294565       0.63676907       0.64996977       0.61664526       0.67029858       0.63404415       0.62598077       0.62104905       0.63103432       0.62411913       0.65062454       0.64915735       0.63144524       0.57435102       0.55118409       0.56467576       0.58327277
           0.57818966       0.55444045       0.58739141       0.56912885       0.54613071       0.59233759       0.64664902       0.61650399       0.63207182       0.66408512       0.62947348       0.61296230       0.65707996       0.64024601       0.59808295       0.67210072       0.59225307       0.60661597       0.54215703       0.64230661
           0.71319720       0.70317103       0.70492852       0.72071463       0.71670152       0.68225711       0.83291408       0.69435234       0.65579434       0.73529898       0.93320140       0.92077184       0.92971344       0.92988986       0.93689116       0.93939856       0.93648454       0.93362560       0.93014803       0.94084420
           0.73869349       0.72881793       0.92166865       0.93983134       0.92284766       0.92976821       0.71252938       0.92235641       0.69064650       0.93132564       0.67602827       0.92992272       0.93621777       0.93105503       0.93219793       0.94854006       0.94770231       0.93930302       0.94998103       0.95135015
           0.93561091       0.94284942       0.70602885       0.71749140       0.65179031       0.94704879       0.63780414       0.62318707       1.87809881       0.93287423       0.57190188       0.32034082       0.57125344       0.33353691       0.54367803       0.54274312       0.54345878       2.73463221       0.64667788       1.43789345
           0.37618843       0.54358571       0.54357086       1.72253933       0.54237400       0.54431558       0.79727283       2.17745444       0.51979095       1.81438009       0.60506888       1.82153052       0.65907949       0.66601371       0.63064171       0.65436271       0.66596236       0.65275934       0.66079870       0.69549626
           0.64503511       0.65708687       0.69674452       0.68078674       0.67614465       0.72646294       0.69156406       0.69546149       0.66461460       0.73373104       0.66390052       0.73028555       0.70594950       0.63962679       0.54169851       0.68788062       0.65064154       0.60136964       0.65076365       0.64627746
           0.65848371       0.64137682       0.66654274       0.65250973       0.65249162       0.65196331       0.67828914       0.66599638       0.66996136       0.64439142       0.67925965       0.65464277       0.67671243       0.67538688       0.64817524       0.68076375       0.65821757       0.54652314       0.67464850       0.70378760
           0.69082072       0.66914947       0.68439602       0.68867247       0.85759820       0.69391094       0.69437314       0.67844144       0.68478692       0.66239000       0.67221970       0.80951000       0.68157397       0.85129594       0.85299794       0.68129581       0.66007772       0.69790880       0.70558435       0.66191698
           0.66402704       0.84399591       0.70239281       0.69355459       0.94031204       0.93430170       0.93525917       0.94056223       0.95040138       0.94394022       0.94872866       0.94736997       0.93399722       0.94651774       0.94146216       0.94404044       0.93825218       0.92725326       0.94817946       0.94025524
           0.94829307       0.94817320       0.94748877       0.94489600       0.94530169       0.68732061       0.94994822       0.94920881       0.94913091       0.95081661       0.95127971       0.95234013       0.95396339       0.95080590       0.94366051       0.95384517       0.94994684       0.95028304       0.95004167       0.95341892
           0.95151568       0.95770898       0.95478878       0.95110539       0.95368127       0.95393600       0.95205402       0.94813013       0.94979438       0.94761598       0.86901456       0.85701450       0.87013776       0.87147788       0.86082763       0.87602847       0.87238870       0.87951968       0.80487596       0.87452494
           0.86244817       0.86445108       0.87036796       0.86489714       0.86874953       0.87311106       0.85865456       0.86923435       0.86594092       0.86382933       0.88125114       0.86285723       0.88307332       0.69833610       0.93990668       0.87812998       0.93921686       0.93815319       0.95494942       0.90431333
           0.94451934       0.94801992       0.88846693       0.88424919       0.89433573       0.87188150       0.88076295       0.91846819       0.95005107       0.89601468       0.88744500       0.87829194       0.95562099       0.88253138       0.93123072       0.87594334       0.95626345       0.93295227       0.93765347       0.86848059
           0.94137644       0.63270323       0.54048176       0.56780529       0.53789995       0.42224507       0.64580911       0.55064508       0.54275179       0.54315398       0.60336896       0.57647226       0.58744269       0.62185843       0.56621959       0.56704341       0.59254603       0.57581066       0.55383127       0.56639987
           0.54420405       0.55403582       0.59260929       0.60654783       0.52767602       0.53291390       0.57012602       0.53508424       0.57610737       0.57818529       0.56037111       0.61455580       0.66226410       0.61439135       0.66330968       0.68400506       0.69849531       0.67363872       0.70917441       0.62849107
           0.62126402       0.67911250       0.67144829       0.62686483       0.15848827       0.61586857       0.66528959       0.77093894       0.68014766       0.66380123       0.64676367       0.67707550       0.74066403       0.66004501       0.65134228       0.67569831       0.66420984       0.65432337       0.69483756       0.70140282
           0.69729019       0.70780016       0.71969649       0.69754990       0.68437112       0.70049635       0.66240378       0.68422727       0.72926398       0.69021245       0.76345359       0.74820878       0.78773190       0.74175421       0.75002340       0.77742628       0.73545396       0.84626367       0.74304166       0.77514460
           0.78934691       0.68188226       0.87093054       0.86987407       0.91386385       0.84664212       0.84856921       0.77583081       0.77904067       0.72807963       0.72909982       0.81200586       0.63027730       0.57706883       0.47203202       0.45258042       0.49838786       0.47321544       0.54559080       0.52045984
           0.55625305       0.51200696       0.55250061       0.48759268       0.46028570       0.45302904       0.50821599       0.51713848       0.48734267       0.56070231       0.55269981       0.50722089       0.53188839       0.50757268       0.51455322       0.46523351       0.58897698       0.61437666       0.66776795       0.53527890
           0.72541964       0.68055537       0.94569228       0.70999841       0.72590261       0.87103717       0.66459282       0.55715160       0.71644487       0.71358984       0.75766750       0.87323729       0.88083447       0.73431574       0.70325333       0.55399436       1.06629161       0.53166362       0.62482487       1.12962405
           0.48821364       0.51710814       0.46955404       0.49059689       0.49275301       0.46626987       0.49395287       0.47888084       0.48491185       0.51522465       0.59804695       0.53918323       0.57434072       0.50747936       0.49665959       0.54123635       0.57604626       0.57031251       0.52932564       0.59579394
           0.55470830       0.50216936       0.46347346       0.54224614       0.63608920       0.50760038       0.57350299       0.53749302       0.69104909       0.63032807       0.57386055       0.59464138       0.50304718       0.48779287       0.62082480       0.48896796       0.57467157       0.62537029       0.59471104       0.58725657
           0.53580859       0.51612855       0.62934150       0.53377558       0.48517818       0.99697777       0.59151872       0.43825661       0.54202211       1.68493383       0.88666746       0.87425467       0.87356220       0.88327959       0.88673914       0.88378589       0.88144737       0.89331342       0.87298492       0.89201181
           0.90295652       0.90192073       0.90917860       0.90845099       0.90575307       0.90818437       0.89395248       0.91062756       0.89869577       0.91329603       0.89632572       0.90038863       0.86255063       0.87141208       0.86726413       0.87089420       0.86211204       0.81887922       0.84775747       0.84684268
           0.83710244       0.84361980       0.87954491       0.88643469       0.89263709       0.91554998       0.89146092       0.87815339       0.89076182       0.89649755       0.88442359       0.90687878       0.90646447       0.86559341       0.85696044       0.91485557       0.93917966       0.92535891       0.92116498       0.94396516
           0.92461237       0.91491184       0.94039896       0.92016764       0.91531652       0.94324207       0.95177479       0.95114030       0.95146039       0.95153576       0.95098017       0.95021972       0.94629942       0.95165257       0.94960007       0.95153257       0.93387299       0.93421811       0.93909776       0.93336659
           0.94251728       0.94231619       0.92693721       0.92033877       0.91865448       0.93167320       0.92907852       0.93856051       0.94546840       0.94435960       0.94578987       0.95151310       0.95171566       0.94311100       0.95242705       0.95132871       0.94415419       0.95033550       0.93460055       0.94007834
           0.91727561       0.89447489       0.87316506       0.91387960       0.85678346       0.81632583       0.83711774       0.87058604       0.86480637       0.85970949       0.84309611       0.86833966       0.79925428       0.86184347       0.86834251       0.85572109       0.87199372       0.88967579       0.88292140       0.88893179
           0.89083383       0.87904139       0.87403534       0.95257106       0.90644478       0.85516605       0.80509867       0.81240160       0.78008010       0.82601239       0.78703478       0.79236888       0.80790769       0.79130143       0.77547828       0.81689273       0.91068866       0.89007356       0.84365083       0.88626377
           0.89648069       0.89923157       0.86218407       0.93107624       0.83584559       0.91370117       0.94156515       0.82991674       0.76617377       0.90705954       0.90074660       0.89493563       0.89315032       0.90216913       0.96559576       0.95138631       0.91318881       0.97464437       0.89673585       0.96166190
           0.90829970       0.94350766       0.95427644       0.95146621       1.03676371       0.96572361       0.98311948       0.96319897       0.91132480       1.06398382       0.97210384       0.91173302       0.99375631       0.98845932       1.10609011       1.05659590       1.63615161       1.65680406       1.56791021       0.98703313
           0.97039252       0.92462948       1.61396872       1.09659365       1.61943157       1.63153780       1.58361737       1.60859091       1.56599568       1.56743684       1.58525415       1.58874441       1.53372592       0.95236149       0.97559012       0.95099941       0.95571715       0.87836363       0.72183942       0.95273174
           1.41930968       0.83897086       0.44584813       1.61024017       2.11654956       0.62991220       2.43719427       1.82734730       2.55424743       1.85144736       2.54441667       1.85353556       1.85218787       2.42899919       2.37863795       2.38171874       2.44126635       2.18958092       2.37107532       2.40715321
           2.36255193       2.32209937       2.40139952       2.33315752       2.42236393       2.29983139       2.24387433       0.40794260       1.85882189       2.23150481       2.22941657       2.11154407       1.81478879       2.24844926       0.62494978       2.22526090       2.20684585       2.24526273       2.32804644       2.21074097
           2.21134932       2.23694366       2.24577276       2.20726330       2.24706749       2.24486955       2.25362312       1.85162590       0.40785696       2.17693660       2.20021538       2.20525367       2.19701494       2.16011997       2.20370031       2.20400938       2.21513902       2.19656466       2.20978268       2.19738799
           2.18484953       2.18187369       2.18359278       2.16761732       2.22038933       2.17784201       2.22494837       2.21631440       2.21893976       2.21487088       2.23947231       2.16974934       2.23564672       2.23830496       2.24977982       2.23079738       2.24132333       2.24498728       2.23244940       2.23553355
           2.24088652       2.24269525       2.22586177       2.23341749       2.23078160       2.22910738       2.23488251       2.23425383       2.22725890       2.22733661       2.23685439       2.22175538       2.24424837       2.22885540       2.23939520       2.23096827       2.11234150       0.37508475       2.11034496       2.11776397
           2.11630357       2.11050850       1.84977206       0.31382467       1.83032320       1.80762852       1.84608855       2.11266229       2.11001881       2.11053654       2.11066861       2.25039399       2.21834405       2.22547690       2.20650974       2.19952370       2.11005276       2.20847812       1.40464593       2.24072535
           2.20539895       2.20564099       2.11195460       2.20295273       2.20331740       2.20125602       2.20021998       2.20185079       0.43784118       2.20196510       2.20407442       2.20477908       2.20299469       2.20595984       2.20261601       2.20121896       2.20201763       2.20241242       2.20278883       2.20067018
           1.80756515       1.80627983       1.83420620       2.20453845       2.24461232       2.20928404       2.21626438       2.22000005       2.21620463       2.21631996       2.21125027       2.21621118       2.24166150       2.21511161       2.23789408       2.23922175       2.23851787       2.23336813       2.21405618       2.21509319
           2.21404139       2.21409754       2.23441875       2.23689938       2.20686641       2.23686101       2.20399708       2.20344301       2.20299700       2.20331445       2.20086510       2.20207504       2.20005800       2.20201415       2.20337816       2.20129925       2.20367605       2.20385239       2.20147899       2.20381441
           2.20089746       2.20241124       2.20180208       2.20210958       2.20345967       2.29492744       2.19929166       2.20508520       2.20451939       2.20472766       2.19979341       2.11129118       0.33610680       2.21291567       2.20486068       2.18572980       2.21482022       2.21036989       2.22438626       2.21846956