# File generated by Flopy version 3.9.1 on 02/09/2026 at 23:02:29.
BEGIN options
  FIXED_CELL
  PRINT_FLOWS
  SAVE_FLOWS
END options

BEGIN dimensions
  MAXBOUND  25262
END dimensions

BEGIN period  1
  1 1 9.89456059E-09
  1 2 1.00239586E-08
  1 3 7.34475545E-09
  1 4 8.72535716E-09
  1 5 1.09129636E-08
  1 6 1.11102117E-08
  1 7 9.78178507E-09
  1 8 7.87728807E-09
  1 9 8.34941340E-09
  1 10 1.01425199E-08
  1 11 1.04954167E-08
  1 12 1.02055915E-08
  1 13 7.73172210E-09
  1 14 7.40014518E-09
  1 15 1.09401589E-08
  1 16 1.07182802E-08
  1 17 8.34034863E-09
  1 18 1.09030531E-08
  1 19 1.13588642E-08
  1 20 1.00666150E-08
  1 21 1.09145253E-08
  1 22 7.77447943E-09
  1 23 9.79830399E-09
  1 24 1.09415412E-08
  1 25 1.10761669E-08
  1 26 9.51312222E-09
  1 27 7.74761370E-09
  1 28 1.15584798E-08
  1 29 8.73145079E-09
  1 30 1.14258066E-08
  1 31 1.14293718E-08
  1 32 7.22151154E-09
  1 33 1.14271124E-08
  1 34 1.15202610E-08
  1 35 6.37619677E-09
  1 36 7.24749037E-09
  1 37 7.18168993E-09
  1 38 1.11493733E-08
  1 39 7.30643812E-09
  1 40 1.14952450E-08
  1 41 7.95697167E-09
  1 42 1.08981894E-08
  1 43 7.79647299E-09
  1 44 1.17601599E-08
  1 45 6.70041908E-09
  1 46 6.09201614E-09
  1 47 8.11659452E-09
  1 48 8.34883384E-09
  1 49 1.01394108E-08
  1 50 8.78125893E-09
  1 51 9.30322367E-09
  1 52 9.99920788E-09
  1 53 6.27625956E-09
  1 54 8.83074914E-09
  1 55 8.34268849E-09
  1 56 5.05222162E-09
  1 57 8.34637084E-09
  1 58 8.28762352E-09
  1 59 8.51880960E-09
  1 60 8.50390694E-09
  1 61 8.30171734E-09
  1 62 8.44033667E-09
  1 63 8.86014525E-09
  1 64 9.83546405E-09
  1 65 1.06140166E-08
  1 66 7.70535783E-09
  1 67 9.99095089E-09
  1 68 1.01534218E-08
  1 69 1.02161703E-08
  1 70 1.00446027E-08
  1 71 1.01697819E-08
  1 72 1.09051103E-08
  1 73 1.04004282E-08
  1 74 1.02330768E-08
  1 75 1.05252586E-08
  1 76 1.00397285E-08
  1 77 9.77738977E-09
  1 78 9.87619232E-09
  1 79 9.79671230E-09
  1 80 9.66215182E-09
  1 81 9.76511261E-09
  1 82 9.73159479E-09
  1 83 9.94472864E-09
  1 84 9.70738148E-09
  1 85 9.93929758E-09
  1 86 9.55444111E-09
  1 87 1.02194832E-08
  1 88 9.75245747E-09
  1 89 1.16045919E-08
  1 90 9.57294981E-09
  1 91 1.16154845E-08
  1 92 4.11198616E-09
  1 93 9.51537830E-09
  1 94 9.09153876E-09
  1 95 8.99194354E-09
  1 96 7.27848294E-09
  1 97 8.97790461E-09
  1 98 9.02157780E-09
  1 99 8.97129886E-09
  1 100 8.83887932E-09
  1 101 8.34734456E-09
  1 102 7.96142722E-09
  1 103 1.07701845E-08
  1 104 7.06756415E-09
  1 105 7.78380276E-09
  1 106 1.11701189E-08
  1 107 7.29697856E-09
  1 108 8.07030368E-09
  1 109 7.85945961E-09
  1 110 1.03845552E-08
  1 111 7.77065654E-09
  1 112 1.12408437E-08
  1 113 7.79829383E-09
  1 114 8.08604653E-09
  1 115 7.94208030E-09
  1 116 7.88039829E-09
  1 117 7.98466605E-09
  1 118 8.05255968E-09
  1 119 7.92057281E-09
  1 120 7.83975186E-09
  1 121 7.83954728E-09
  1 122 7.97967714E-09
  1 123 7.71155000E-09
  1 124 7.97819910E-09
  1 125 7.96911374E-09
  1 126 8.00240151E-09
  1 127 7.96717501E-09
  1 128 8.00657265E-09
  1 129 8.10524806E-09
  1 130 8.02019051E-09
  1 131 8.08271436E-09
  1 132 8.06299683E-09
  1 133 8.05786928E-09
  1 134 8.14732860E-09
  1 135 8.21713540E-09
  1 136 7.62558132E-09
  1 137 8.16152042E-09
  1 138 8.14729390E-09
  1 139 8.22720356E-09
  1 140 8.22999627E-09
  1 141 8.29424709E-09
  1 142 8.29172205E-09
  1 143 8.25582379E-09
  1 144 8.17244817E-09
  1 145 8.18616816E-09
  1 146 8.23763762E-09
  1 147 8.18331417E-09
  1 148 8.23153027E-09
  1 149 8.29794483E-09
  1 150 8.32562986E-09
  1 151 8.33246300E-09
  1 152 8.30835160E-09
  1 153 8.34585897E-09
  1 154 8.30085564E-09
  1 155 8.34726738E-09
  1 156 8.34615940E-09
  1 157 8.31099254E-09
  1 158 8.38654082E-09
  1 159 8.23884148E-09
  1 160 8.24687492E-09
  1 161 8.23670100E-09
  1 162 8.21755613E-09
  1 163 8.23137487E-09
  1 164 8.26593640E-09
  1 165 8.25885375E-09
  1 166 8.20495252E-09
  1 167 8.18566078E-09
  1 168 8.25090266E-09
  1 169 8.16696759E-09
  1 170 8.28635806E-09
  1 171 8.32067813E-09
  1 172 8.25286125E-09
  1 173 8.26522865E-09
  1 174 8.33656459E-09
  1 175 8.24575307E-09
  1 176 8.21551691E-09
  1 177 8.32013559E-09
  1 178 8.28526533E-09
  1 179 8.29329462E-09
  1 180 8.37283137E-09
  1 181 8.22084910E-09
  1 182 8.25511298E-09
  1 183 8.14487631E-09
  1 184 8.32418546E-09
  1 185 7.93893086E-09
  1 186 1.15036034E-08
  1 187 7.72580584E-09
  1 188 8.33810760E-09
  1 189 8.40144475E-09
  1 190 8.40544587E-09
  1 191 8.42046637E-09
  1 192 8.43949474E-09
  1 193 8.43278709E-09
  1 194 8.39849070E-09
  1 195 8.42909336E-09
  1 196 8.43616229E-09
  1 197 8.42010084E-09
  1 198 8.45775704E-09
  1 199 8.41990793E-09
  1 200 8.43211972E-09
  1 201 8.43842032E-09
  1 202 8.42706373E-09
  1 203 8.44498817E-09
  1 204 8.42984300E-09
  1 205 8.45700450E-09
  1 206 8.42842179E-09
  1 207 8.42645210E-09
  1 208 8.43959346E-09
  1 209 8.44505460E-09
  1 210 8.39758709E-09
  1 211 8.44951612E-09
  1 212 8.41691220E-09
  1 213 8.44257406E-09
  1 214 8.46334818E-09
  1 215 8.45577960E-09
  1 216 8.33091872E-09
  1 217 8.44403637E-09
  1 218 8.40326929E-09
  1 219 8.38910375E-09
  1 220 8.47237703E-09
  1 221 8.46887463E-09
  1 222 8.46588749E-09
  1 223 8.48379553E-09
  1 224 8.48216774E-09
  1 225 8.50156711E-09
  1 226 8.49815234E-09
  1 227 8.51932724E-09
  1 228 8.49443759E-09
  1 229 8.46998938E-09
  1 230 8.45679620E-09
  1 231 8.55539381E-09
  1 232 8.43603000E-09
  1 233 8.38585143E-09
  1 234 8.54910865E-09
  1 235 8.44071302E-09
  1 236 8.44034360E-09
  1 237 8.45281926E-09
  1 238 8.45238813E-09
  1 239 8.47195352E-09
  1 240 8.45294110E-09
  1 241 8.45758069E-09
  1 242 8.48087326E-09
  1 243 8.42612781E-09
  1 244 8.46129682E-09
  1 245 8.45417105E-09
  1 246 8.45034011E-09
  1 247 8.46326307E-09
  1 248 8.43602466E-09
  1 249 8.49109828E-09
  1 250 8.47881117E-09
  1 251 8.50951661E-09
  1 252 8.47344661E-09
  1 253 8.47489376E-09
  1 254 8.47805091E-09
  1 255 8.49127728E-09
  1 256 8.43604345E-09
  1 257 8.47430527E-09
  1 258 8.45484209E-09
  1 259 8.47730878E-09
  1 260 8.50821874E-09
  1 261 8.47825870E-09
  1 262 8.44875568E-09
  1 263 8.51193514E-09
  1 264 8.48838022E-09
  1 265 8.48467254E-09
  1 266 8.50591144E-09
  1 267 8.54564238E-09
  1 268 8.55267943E-09
  1 269 8.55870472E-09
  1 270 8.52002439E-09
  1 271 8.58485912E-09
  1 272 8.54469445E-09
  1 273 8.55131753E-09
  1 274 8.56637130E-09
  1 275 8.52312431E-09
  1 276 8.53367353E-09
  1 277 8.57463556E-09
  1 278 8.46264161E-09
  1 279 8.44227934E-09
  1 280 8.59387405E-09
  1 281 8.49211537E-09
  1 282 8.34420135E-09
  1 283 8.35395265E-09
  1 284 8.35758265E-09
  1 285 8.33008956E-09
  1 286 8.39012331E-09
  1 287 8.44330965E-09
  1 288 8.39902869E-09
  1 289 8.38367320E-09
  1 290 8.42345032E-09
  1 291 8.43360888E-09
  1 292 8.43001592E-09
  1 293 8.46948605E-09
  1 294 8.41981470E-09
  1 295 8.42934804E-09
  1 296 8.45410500E-09
  1 297 8.50585566E-09
  1 298 8.45587127E-09
  1 299 8.47343307E-09
  1 300 8.50499901E-09
  1 301 8.45338565E-09
  1 302 8.47491346E-09
  1 303 8.47115139E-09
  1 304 8.40602390E-09
  1 305 8.36731578E-09
  1 306 8.42030266E-09
  1 307 8.48352862E-09
  1 308 8.51652031E-09
  1 309 8.36887437E-09
  1 310 8.47155921E-09
  1 311 8.53175966E-09
  1 312 8.44953618E-09
  1 313 8.41119317E-09
  1 314 8.51268667E-09
  1 315 8.51691996E-09
  1 316 8.49965690E-09
  1 317 8.51889601E-09
  1 318 8.50807784E-09
  1 319 8.52413871E-09
  1 320 8.46433785E-09
  1 321 8.54963237E-09
  1 322 8.57196637E-09
  1 323 8.48515414E-09
  1 324 8.57277675E-09
  1 325 8.48787633E-09
  1 326 8.42439472E-09
  1 327 8.38943288E-09
  1 328 8.55661141E-09
  1 329 8.46993682E-09
  1 330 8.44244291E-09
  1 331 8.46545364E-09
  1 332 8.46182822E-09
  1 333 8.51333656E-09
  1 334 8.48949909E-09
  1 335 8.50676893E-09
  1 336 8.58042613E-09
  1 337 8.49270983E-09
  1 338 8.50064238E-09
  1 339 8.46829371E-09
  1 340 8.45600251E-09
  1 341 8.59912086E-09
  1 342 8.45525143E-09
  1 343 8.50435852E-09
  1 344 8.49996550E-09
  1 345 8.51283174E-09
  1 346 8.54444858E-09
  1 347 8.48658739E-09
  1 348 8.54630191E-09
  1 349 8.56912977E-09
  1 350 8.41274435E-09
  1 351 8.55436074E-09
  1 352 8.56721185E-09
  1 353 8.53664044E-09
  1 354 8.56775742E-09
  1 355 8.60812657E-09
  1 356 8.57555565E-09
  1 357 8.63819089E-09
  1 358 8.56930280E-09
  1 359 8.59626179E-09
  1 360 8.68099188E-09
  1 361 8.60301447E-09
  1 362 8.56619640E-09
  1 363 8.85792052E-09
  1 364 8.63671045E-09
  1 365 8.89270839E-09
  1 366 8.60558180E-09
  1 367 8.82601659E-09
  1 368 8.89002276E-09
  1 369 8.66745583E-09
  1 370 8.85050398E-09
  1 371 8.88266781E-09
  1 372 8.53658292E-09
  1 373 8.62101925E-09
  1 374 8.59747825E-09
  1 375 8.52243214E-09
  1 376 8.42713152E-09
  1 377 8.01318456E-09
  1 378 8.91103865E-09
  1 379 8.30598869E-09
  1 380 8.44624985E-09
  1 381 9.13305282E-09
  1 382 8.34911725E-09
  1 383 8.32223941E-09
  1 384 9.99943441E-09
  1 385 9.11420189E-09
  1 386 9.11151395E-09
  1 387 7.69049922E-09
  1 388 9.10257089E-09
  1 389 9.06833625E-09
  1 390 9.07678255E-09
  1 391 1.01625349E-08
  1 392 8.17039276E-09
  1 393 8.53595440E-09
  1 394 8.74697405E-09
  1 395 8.56783159E-09
  1 396 8.55498105E-09
  1 397 9.49208218E-09
  1 398 8.54235223E-09
  1 399 1.00235310E-08
  1 400 9.06134330E-09
  1 401 8.56236371E-09
  1 402 8.57270844E-09
  1 403 8.56186374E-09
  1 404 8.55045975E-09
  1 405 8.76543236E-09
  1 406 8.77583536E-09
  1 407 8.78998047E-09
  1 408 8.68484491E-09
  1 409 8.88986543E-09
  1 410 8.54832567E-09
  1 411 8.54960682E-09
  1 412 8.55324577E-09
  1 413 8.55296377E-09
  1 414 8.52528550E-09
  1 415 8.51827273E-09
  1 416 8.54313103E-09
  1 417 8.53075628E-09
  1 418 8.53496986E-09
  1 419 8.54484711E-09
  1 420 8.52932463E-09
  1 421 8.73137209E-09
  1 422 8.81232496E-09
  1 423 8.84927510E-09
  1 424 8.52167714E-09
  1 425 8.50489001E-09
  1 426 8.76798983E-09
  1 427 8.51546143E-09
  1 428 8.51005458E-09
  1 429 8.53892876E-09
  1 430 8.51952184E-09
  1 431 8.51877452E-09
  1 432 8.51152491E-09
  1 433 8.51076842E-09
  1 434 8.51849867E-09
  1 435 8.49351334E-09
  1 436 8.49302454E-09
  1 437 8.49929092E-09
  1 438 8.47725795E-09
  1 439 8.53103143E-09
  1 440 8.52383129E-09
  1 441 8.54538334E-09
  1 442 8.51952215E-09
  1 443 8.49796079E-09
  1 444 8.53827167E-09
  1 445 8.54277325E-09
  1 446 8.47687031E-09
  1 447 8.53910473E-09
  1 448 8.53212914E-09
  1 449 8.52507051E-09
  1 450 8.52461033E-09
  1 451 8.52980161E-09
  1 452 8.52463303E-09
  1 453 8.52320452E-09
  1 454 8.51502712E-09
  1 455 8.51127992E-09
  1 456 8.52326459E-09
  1 457 8.51813148E-09
  1 458 8.51777630E-09
  1 459 8.51884266E-09
  1 460 8.51398028E-09
  1 461 8.51915006E-09
  1 462 8.51795462E-09
  1 463 8.52194981E-09
  1 464 8.51524356E-09
  1 465 8.51966043E-09
  1 466 8.51121872E-09
  1 467 8.50318670E-09
  1 468 8.52160279E-09
  1 469 8.56187110E-09
  1 470 8.51324949E-09
  1 471 8.49736862E-09
  1 472 8.47926702E-09
  1 473 9.14918734E-09
  1 474 7.87861188E-09
  1 475 9.71450668E-09
  1 476 7.70626966E-09
  1 477 8.94304574E-09
  1 478 8.44319534E-09
  1 479 8.77798579E-09
  1 480 8.91194356E-09
  1 481 5.23278579E-09
  1 482 9.27234204E-09
  1 483 8.77325101E-09
  1 484 8.14838856E-09
  1 485 8.76372399E-09
  1 486 8.78224251E-09
  1 487 8.81992400E-09
  1 488 9.49067264E-09
  1 489 9.19894387E-09
  1 490 8.80900456E-09
  1 491 7.90682996E-09
  1 492 8.74338348E-09
  1 493 8.80108524E-09
  1 494 8.44798619E-09
  1 495 8.75999327E-09
  1 496 8.69925831E-09
  1 497 8.74882012E-09
  1 498 8.75358409E-09
  1 499 8.73204171E-09
  1 500 8.73317525E-09
  1 501 7.73845481E-09
  1 502 8.73650248E-09
  1 503 6.77811119E-09
  1 504 8.30043130E-09
  1 505 8.74480471E-09
  1 506 8.75819457E-09
  1 507 8.27851737E-09
  1 508 8.79265903E-09
  1 509 8.22656499E-09
  1 510 8.16937608E-09
  1 511 8.24506268E-09
  1 512 8.16997846E-09
  1 513 8.74117026E-09
  1 514 8.13568687E-09
  1 515 9.47675929E-09
  1 516 8.75027448E-09
  1 517 5.66344377E-09
  1 518 8.21228954E-09
  1 519 8.50600200E-09
  1 520 8.51042166E-09
  1 521 8.52108677E-09
  1 522 8.49701416E-09
  1 523 8.09886363E-09
  1 524 8.48993737E-09
  1 525 8.12292185E-09
  1 526 8.20639118E-09
  1 527 8.51246026E-09
  1 528 8.11645107E-09
  1 529 8.48869953E-09
  1 530 8.49528879E-09
  1 531 8.48110547E-09
  1 532 8.51054382E-09
  1 533 8.47226940E-09
  1 534 8.47825718E-09
  1 535 8.45212067E-09
  1 536 8.46827504E-09
  1 537 8.48961181E-09
  1 538 8.02059595E-09
  1 539 8.14347162E-09
  1 540 8.51822201E-09
  1 541 8.06776844E-09
  1 542 8.07533147E-09
  1 543 8.11015553E-09
  1 544 8.18541916E-09
  1 545 8.19041628E-09
  1 546 8.15392568E-09
  1 547 8.08155026E-09
  1 548 8.03523209E-09
  1 549 8.14015479E-09
  1 550 8.08969744E-09
  1 551 7.99272110E-09
  1 552 8.04390087E-09
  1 553 7.98264087E-09
  1 554 7.97793793E-09
  1 555 7.87548857E-09
  1 556 7.93729463E-09
  1 557 7.82589166E-09
  1 558 7.98411934E-09
  1 559 8.04227931E-09
  1 560 8.52010591E-09
  1 561 7.93609240E-09
  1 562 8.04358364E-09
  1 563 8.11192294E-09
  1 564 8.51739511E-09
  1 565 7.71399925E-09
  1 566 8.52484633E-09
  1 567 7.72105343E-09
  1 568 8.45210467E-09
  1 569 7.93303757E-09
  1 570 7.78969957E-09
  1 571 7.87710303E-09
  1 572 7.85552461E-09
  1 573 8.06509772E-09
  1 574 8.06708651E-09
  1 575 8.10478735E-09
  1 576 7.99702931E-09
  1 577 7.67470895E-09
  1 578 8.03947618E-09
  1 579 7.81263463E-09
  1 580 7.86968786E-09
  1 581 7.92562125E-09
  1 582 7.86705668E-09
  1 583 8.02164258E-09
  1 584 7.96883729E-09
  1 585 7.93427554E-09
  1 586 8.07250027E-09
  1 587 8.02910051E-09
  1 588 7.95547499E-09
  1 589 8.10281443E-09
  1 590 7.78784790E-09
  1 591 8.05058452E-09
  1 592 8.02248150E-09
  1 593 8.03287817E-09
  1 594 8.05495832E-09
  1 595 8.14206433E-09
  1 596 8.08021916E-09
  1 597 8.16921018E-09
  1 598 8.10750584E-09
  1 599 8.09833176E-09
  1 600 8.10806902E-09
  1 601 8.14366805E-09
  1 602 8.13564514E-09
  1 603 8.17424334E-09
  1 604 8.11753240E-09
  1 605 8.21950294E-09
  1 606 8.19061894E-09
  1 607 8.23817647E-09
  1 608 8.15533497E-09
  1 609 8.13811612E-09
  1 610 8.15727892E-09
  1 611 8.08947765E-09
  1 612 8.06133570E-09
  1 613 7.73081564E-09
  1 614 8.26930430E-09
  1 615 7.93720685E-09
  1 616 7.91327834E-09
  1 617 8.00234600E-09
  1 618 7.96958812E-09
  1 619 7.99400961E-09
  1 620 7.83301904E-09
  1 621 8.07586957E-09
  1 622 7.99670011E-09
  1 623 7.94661143E-09
  1 624 8.03173911E-09
  1 625 8.25002919E-09
  1 626 8.12322701E-09
  1 627 8.09954165E-09
  1 628 8.18068598E-09
  1 629 8.21012250E-09
  1 630 8.18361008E-09
  1 631 8.04016097E-09
  1 632 8.21297457E-09
  1 633 8.07314723E-09
  1 634 8.16291295E-09
  1 635 8.02032809E-09
  1 636 7.87849646E-09
  1 637 8.02954295E-09
  1 638 8.00856882E-09
  1 639 8.07841923E-09
  1 640 8.06692924E-09
  1 641 8.12230899E-09
  1 642 8.12438048E-09
  1 643 8.23175605E-09
  1 644 8.17623031E-09
  1 645 8.03160319E-09
  1 646 8.09269986E-09
  1 647 8.22113040E-09
  1 648 8.12103919E-09
  1 649 8.16546329E-09
  1 650 8.23348369E-09
  1 651 8.18186418E-09
  1 652 8.12771486E-09
  1 653 8.16766103E-09
  1 654 8.11954436E-09
  1 655 8.08057184E-09
  1 656 8.18149945E-09
  1 657 8.21086736E-09
  1 658 8.05060873E-09
  1 659 8.07286965E-09
  1 660 8.19898220E-09
  1 661 8.26812130E-09
  1 662 7.82559418E-09
  1 663 8.26003694E-09
  1 664 8.15038037E-09
  1 665 8.33880459E-09
  1 666 8.30535315E-09
  1 667 8.33112263E-09
  1 668 8.35081047E-09
  1 669 8.36846042E-09
  1 670 8.28470198E-09
  1 671 8.38115954E-09
  1 672 8.35433978E-09
  1 673 8.17434122E-09
  1 674 8.19915502E-09
  1 675 8.30974511E-09
  1 676 8.33125037E-09
  1 677 8.43356540E-09
  1 678 8.34474343E-09
  1 679 8.39684217E-09
  1 680 8.46358489E-09
  1 681 8.46039591E-09
  1 682 8.35956050E-09
  1 683 8.44501230E-09
  1 684 8.23003658E-09
  1 685 8.48965238E-09
  1 686 8.46536623E-09
  1 687 8.51136562E-09
  1 688 8.51163800E-09
  1 689 8.52126690E-09
  1 690 8.53327767E-09
  1 691 8.53273980E-09
  1 692 8.51697526E-09
  1 693 8.53583020E-09
  1 694 8.52743508E-09
  1 695 8.47939087E-09
  1 696 8.48696504E-09
  1 697 8.50674386E-09
  1 698 8.47539702E-09
  1 699 8.51668260E-09
  1 700 8.50477221E-09
  1 701 8.53848552E-09
  1 702 8.51320290E-09
  1 703 8.53073530E-09
  1 704 8.52935384E-09
  1 705 8.53663494E-09
  1 706 8.46933882E-09
  1 707 8.49728468E-09
  1 708 8.50214613E-09
  1 709 8.19251212E-09
  1 710 8.19738089E-09
  1 711 8.22635007E-09
  1 712 8.24002204E-09
  1 713 8.19857486E-09
  1 714 8.20185221E-09
  1 715 8.23195230E-09
  1 716 8.18371448E-09
  1 717 8.14391258E-09
  1 718 8.22654369E-09
  1 719 8.25980810E-09
  1 720 8.23379724E-09
  1 721 8.25739035E-09
  1 722 8.53957663E-09
  1 723 8.27017144E-09
  1 724 8.24706105E-09
  1 725 8.32255686E-09
  1 726 8.27276695E-09
  1 727 8.26123272E-09
  1 728 8.31259294E-09
  1 729 8.24320628E-09
  1 730 8.15922988E-09
  1 731 8.36238565E-09
  1 732 8.29090255E-09
  1 733 8.34691210E-09
  1 734 8.28616628E-09
  1 735 8.51784086E-09
  1 736 8.45442263E-09
  1 737 8.53541440E-09
  1 738 8.52359332E-09
  1 739 8.51160804E-09
  1 740 8.49725196E-09
  1 741 8.46949988E-09
  1 742 8.38236249E-09
  1 743 8.42059687E-09
  1 744 8.48679834E-09
  1 745 8.52438828E-09
  1 746 8.47838078E-09
  1 747 8.52640292E-09
  1 748 8.30265544E-09
  1 749 8.50501765E-09
  1 750 8.41158981E-09
  1 751 8.52118529E-09
  1 752 8.29160121E-09
  1 753 8.22795591E-09
  1 754 8.29184564E-09
  1 755 8.53779660E-09
  1 756 8.10873987E-09
  1 757 8.50294202E-09
  1 758 8.30517022E-09
  1 759 8.24299082E-09
  1 760 7.85084077E-09
  1 761 5.47123199E-09
  1 762 7.91523077E-09
  1 763 8.11245070E-09
  1 764 8.10716429E-09
  1 765 8.11285794E-09
  1 766 8.11107622E-09
  1 767 8.11878611E-09
  1 768 8.11576186E-09
  1 769 8.10902487E-09
  1 770 8.10533765E-09
  1 771 8.08217345E-09
  1 772 7.97401120E-09
  1 773 7.70230452E-09
  1 774 8.08140588E-09
  1 775 8.09677207E-09
  1 776 8.08812251E-09
  1 777 8.10927187E-09
  1 778 8.08590470E-09
  1 779 8.10525675E-09
  1 780 8.08362095E-09
  1 781 8.11741881E-09
  1 782 8.10865549E-09
  1 783 8.12352838E-09
  1 784 8.11283881E-09
  1 785 8.11421566E-09
  1 786 8.12481535E-09
  1 787 8.12809446E-09
  1 788 8.13274256E-09
  1 789 8.13116193E-09
  1 790 8.12918309E-09
  1 791 8.12489569E-09
  1 792 8.12918156E-09
  1 793 8.11602535E-09
  1 794 8.12243827E-09
  1 795 8.12107073E-09
  1 796 8.12267792E-09
  1 797 8.12796809E-09
  1 798 8.12867509E-09
  1 799 8.13036687E-09
  1 800 8.12424186E-09
  1 801 8.12363657E-09
  1 802 8.11900012E-09
  1 803 8.13176218E-09
  1 804 8.11997931E-09
  1 805 8.08417026E-09
  1 806 7.98082620E-09
  1 807 7.92831362E-09
  1 808 7.96859030E-09
  1 809 7.93775838E-09
  1 810 7.93187768E-09
  1 811 7.93991206E-09
  1 812 7.93478606E-09
  1 813 7.94365067E-09
  1 814 7.93333403E-09
  1 815 7.94138121E-09
  1 816 7.93449585E-09
  1 817 7.91229923E-09
  1 818 7.93998253E-09
  1 819 7.92075435E-09
  1 820 7.91557299E-09
  1 821 7.92441769E-09
  1 822 7.92532371E-09
  1 823 7.93150661E-09
  1 824 7.91854486E-09
  1 825 7.92744082E-09
  1 826 7.91114689E-09
  1 827 7.92703693E-09
  1 828 8.07942066E-09
  1 829 7.95508951E-09
  1 830 7.96219542E-09
  1 831 7.93877617E-09
  1 832 7.93694993E-09
  1 833 7.97746889E-09
  1 834 7.97187911E-09
  1 835 7.94687541E-09
  1 836 7.97297696E-09
  1 837 7.95935783E-09
  1 838 7.97754524E-09
  1 839 7.93232278E-09
  1 840 7.93569503E-09
  1 841 7.93104106E-09
  1 842 7.92730992E-09
  1 843 7.92899853E-09
  1 844 7.94089612E-09
  1 845 7.93782088E-09
  1 846 7.93197249E-09
  1 847 7.93744814E-09
  1 848 7.91745765E-09
  1 849 7.93717113E-09
  1 850 7.94720022E-09
  1 851 7.98159030E-09
  1 852 7.92528511E-09
  1 853 8.12573882E-09
  1 854 8.14638010E-09
  1 855 8.16932696E-09
  1 856 8.15136558E-09
  1 857 8.15762988E-09
  1 858 8.15204661E-09
  1 859 8.17984460E-09
  1 860 8.17344812E-09
  1 861 8.18173380E-09
  1 862 8.18013420E-09
  1 863 8.14376688E-09
  1 864 8.15803503E-09
  1 865 8.14562770E-09
  1 866 8.14177895E-09
  1 867 8.14507115E-09
  1 868 8.13613943E-09
  1 869 8.15232749E-09
  1 870 8.14683724E-09
  1 871 8.16107874E-09
  1 872 8.15665688E-09
  1 873 8.15084017E-09
  1 874 8.14573035E-09
  1 875 8.15655034E-09
  1 876 8.12263055E-09
  1 877 8.18774456E-09
  1 878 8.18849292E-09
  1 879 8.18649176E-09
  1 880 8.18713523E-09
  1 881 8.19083586E-09
  1 882 8.19501267E-09
  1 883 8.19010963E-09
  1 884 8.19151407E-09
  1 885 8.19329681E-09
  1 886 8.18647403E-09
  1 887 8.17750080E-09
  1 888 8.18339772E-09
  1 889 8.18139442E-09
  1 890 8.17602927E-09
  1 891 8.18756101E-09
  1 892 8.18842133E-09
  1 893 8.18285568E-09
  1 894 8.18389541E-09
  1 895 8.19086765E-09
  1 896 8.18020833E-09
  1 897 8.19525687E-09
  1 898 8.18214824E-09
  1 899 8.18909729E-09
  1 900 8.16801578E-09
  1 901 8.12877477E-09
  1 902 8.13081021E-09
  1 903 8.13413733E-09
  1 904 8.11045951E-09
  1 905 8.13440874E-09
  1 906 8.13793438E-09
  1 907 8.04771264E-09
  1 908 8.13609786E-09
  1 909 8.13725218E-09
  1 910 8.13285096E-09
  1 911 7.96336271E-09
  1 912 7.96969757E-09
  1 913 7.96987115E-09
  1 914 7.90796076E-09
  1 915 7.97464656E-09
  1 916 7.97481890E-09
  1 917 7.96769259E-09
  1 918 7.97021512E-09
  1 919 7.97614156E-09
  1 920 7.97093393E-09
  1 921 8.13737105E-09
  1 922 8.12723726E-09
  1 923 8.00318313E-09
  1 924 7.97818161E-09
  1 925 8.01982306E-09
  1 926 8.00496221E-09
  1 927 8.17117624E-09
  1 928 8.01243216E-09
  1 929 8.17365296E-09
  1 930 8.01164410E-09
  1 931 8.17627736E-09
  1 932 8.00208586E-09
  1 933 7.99187539E-09
  1 934 7.99140117E-09
  1 935 7.99886173E-09
  1 936 7.93600053E-09
  1 937 7.99078939E-09
  1 938 7.99782617E-09
  1 939 7.94786081E-09
  1 940 7.94324739E-09
  1 941 7.99667274E-09
  1 942 7.97906632E-09
  1 943 8.17817354E-09
  1 944 8.16588789E-09
  1 945 8.15233227E-09
  1 946 7.98472914E-09
  1 947 8.18892653E-09
  1 948 8.13489827E-09
  1 949 9.55577124E-09
  1 950 7.87649063E-09
  1 951 7.93410880E-09
  1 952 6.67658253E-09
  1 953 7.90611024E-09
  1 954 5.65560759E-09
  1 955 7.89178506E-09
  1 956 7.89861095E-09
  1 957 7.89341078E-09
  1 958 7.67238048E-09
  1 959 7.92145209E-09
  1 960 7.70426980E-09
  1 961 5.84258169E-09
  1 962 7.89315830E-09
  1 963 7.89319206E-09
  1 964 7.73768767E-09
  1 965 7.88073668E-09
  1 966 7.88453193E-09
  1 967 7.80087596E-09
  1 968 7.45728369E-09
  1 969 7.92513003E-09
  1 970 9.03472703E-09
  1 971 7.91965798E-09
  1 972 5.51458913E-09
  1 973 7.90563965E-09
  1 974 7.90417499E-09
  1 975 7.92122484E-09
  1 976 7.90780856E-09
  1 977 7.91377523E-09
  1 978 7.91353598E-09
  1 979 7.93281682E-09
  1 980 7.88877797E-09
  1 981 7.91259149E-09
  1 982 7.90609800E-09
  1 983 7.89033228E-09
  1 984 7.89891728E-09
  1 985 7.89557835E-09
  1 986 7.82344254E-09
  1 987 7.89099181E-09
  1 988 7.88855123E-09
  1 989 7.90101058E-09
  1 990 7.78977909E-09
  1 991 7.90119104E-09
  1 992 7.80197664E-09
  1 993 7.82956032E-09
  1 994 7.86286578E-09
  1 995 7.90278965E-09
  1 996 7.89550437E-09
  1 997 7.72874691E-09
  1 998 7.70581457E-09
  1 999 7.74087311E-09
  1 1000 7.71811586E-09
  1 1001 7.73759314E-09
  1 1002 7.74804802E-09
  1 1003 7.75315058E-09
  1 1004 7.73556055E-09
  1 1005 7.75026042E-09
  1 1006 7.72001993E-09
  1 1007 7.66734382E-09
  1 1008 7.67046303E-09
  1 1009 7.68105358E-09
  1 1010 7.72682028E-09
  1 1011 7.67656138E-09
  1 1012 7.69372727E-09
  1 1013 7.68403245E-09
  1 1014 7.67484045E-09
  1 1015 7.69921379E-09
  1 1016 7.65315893E-09
  1 1017 7.71421915E-09
  1 1018 7.86002091E-09
  1 1019 7.75558531E-09
  1 1020 7.77434934E-09
  1 1021 7.76685806E-09
  1 1022 7.74677569E-09
  1 1023 7.75660627E-09
  1 1024 7.76142056E-09
  1 1025 7.75320029E-09
  1 1026 7.76529311E-09
  1 1027 7.76790501E-09
  1 1028 7.74938912E-09
  1 1029 7.67023781E-09
  1 1030 7.70312437E-09
  1 1031 7.74437333E-09
  1 1032 7.62281192E-09
  1 1033 7.68562391E-09
  1 1034 7.71051847E-09
  1 1035 7.70260308E-09
  1 1036 7.74515156E-09
  1 1037 7.73220543E-09
  1 1038 7.66075490E-09
  1 1039 7.78445003E-09
  1 1040 7.74435255E-09
  1 1041 7.75819095E-09
  1 1042 7.66963602E-09
  1 1043 7.82772848E-09
  1 1044 7.64867417E-09
  1 1045 7.91200582E-09
  1 1046 7.89035411E-09
  1 1047 7.91443798E-09
  1 1048 7.90406973E-09
  1 1049 7.89597912E-09
  1 1050 7.91348357E-09
  1 1051 7.89385485E-09
  1 1052 7.89024655E-09
  1 1053 7.90041164E-09
  1 1054 7.89222875E-09
  1 1055 7.87827669E-09
  1 1056 7.89136683E-09
  1 1057 7.87164802E-09
  1 1058 7.86414933E-09
  1 1059 7.88660122E-09
  1 1060 7.88140514E-09
  1 1061 7.88508159E-09
  1 1062 7.88076176E-09
  1 1063 7.88822762E-09
  1 1064 7.87183337E-09
  1 1065 7.92218967E-09
  1 1066 7.93076278E-09
  1 1067 7.89848734E-09
  1 1068 7.89147295E-09
  1 1069 7.92807054E-09
  1 1070 7.90274849E-09
  1 1071 7.93087385E-09
  1 1072 7.92926644E-09
  1 1073 7.91701878E-09
  1 1074 7.93427139E-09
  1 1075 7.92658637E-09
  1 1076 7.92741095E-09
  1 1077 7.88735189E-09
  1 1078 7.88494553E-09
  1 1079 7.87909912E-09
  1 1080 7.89689993E-09
  1 1081 7.88529451E-09
  1 1082 7.91355863E-09
  1 1083 7.90520292E-09
  1 1084 7.89367184E-09
  1 1085 7.89388934E-09
  1 1086 7.88667233E-09
  1 1087 7.93964461E-09
  1 1088 7.91122537E-09
  1 1089 7.93421578E-09
  1 1090 7.87658661E-09
  1 1091 7.71454257E-09
  1 1092 7.73291635E-09
  1 1093 7.74825997E-09
  1 1094 7.71744026E-09
  1 1095 7.71706858E-09
  1 1096 7.75148726E-09
  1 1097 7.69287415E-09
  1 1098 7.73292256E-09
  1 1099 7.71808786E-09
  1 1100 7.71593970E-09
  1 1101 7.69365583E-09
  1 1102 7.69930203E-09
  1 1103 7.70489147E-09
  1 1104 7.68879385E-09
  1 1105 7.69308524E-09
  1 1106 7.68187427E-09
  1 1107 7.67921198E-09
  1 1108 7.70856266E-09
  1 1109 7.70895489E-09
  1 1110 7.68065528E-09
  1 1111 7.71882150E-09
  1 1112 7.70495912E-09
  1 1113 7.76767419E-09
  1 1114 7.92492783E-09
  1 1115 7.86871762E-09
  1 1116 7.80744209E-09
  1 1117 7.86105452E-09
  1 1118 7.86406782E-09
  1 1119 7.87851354E-09
  1 1120 7.77649412E-09
  1 1121 7.86699884E-09
  1 1122 7.85444065E-09
  1 1123 7.72291292E-09
  1 1124 7.72355500E-09
  1 1125 7.72540429E-09
  1 1126 7.68650907E-09
  1 1127 7.68037032E-09
  1 1128 7.79901286E-09
  1 1129 7.87475146E-09
  1 1130 7.73373386E-09
  1 1131 7.73070876E-09
  1 1132 7.71656025E-09
  1 1133 7.89877759E-09
  1 1134 7.74620523E-09
  1 1135 7.86014509E-09
  1 1136 7.67812660E-09
  1 1137 7.90623206E-09
  1 1138 7.87086663E-09
  1 1139 7.91764791E-09
  1 1140 7.67379188E-09
  1 1141 8.00456335E-09
  1 1142 8.13253910E-09
  1 1143 8.20593862E-09
  1 1144 8.19849875E-09
  1 1145 8.21402206E-09
  1 1146 8.40179055E-09
  1 1147 8.26235985E-09
  1 1148 8.20662223E-09
  1 1149 8.20220163E-09
  1 1150 8.21123135E-09
  1 1151 8.19574165E-09
  1 1152 8.20047147E-09
  1 1153 8.20093791E-09
  1 1154 8.19306878E-09
  1 1155 8.20395576E-09
  1 1156 8.20125443E-09
  1 1157 8.20449956E-09
  1 1158 8.20310361E-09
  1 1159 8.21162357E-09
  1 1160 8.21559619E-09
  1 1161 8.21764600E-09
  1 1162 8.19864086E-09
  1 1163 8.27907225E-09
  1 1164 8.27179719E-09
  1 1165 8.31364649E-09
  1 1166 8.30786650E-09
  1 1167 8.31246781E-09
  1 1168 8.31468566E-09
  1 1169 8.31929736E-09
  1 1170 8.30610408E-09
  1 1171 8.30264515E-09
  1 1172 8.28161003E-09
  1 1173 8.26369258E-09
  1 1174 8.25671259E-09
  1 1175 8.26976014E-09
  1 1176 8.25941061E-09
  1 1177 8.27388882E-09
  1 1178 8.29006167E-09
  1 1179 8.27902093E-09
  1 1180 8.27500387E-09
  1 1181 8.27377245E-09
  1 1182 8.26857712E-09
  1 1183 8.30427274E-09
  1 1184 8.25061165E-09
  1 1185 9.52673061E-09
  1 1186 8.26763713E-09
  1 1187 8.24292857E-09
  1 1188 8.22069490E-09
  1 1189 8.23985175E-09
  1 1190 8.23864016E-09
  1 1191 8.24953119E-09
  1 1192 8.23253806E-09
  1 1193 8.25298250E-09
  1 1194 8.24649779E-09
  1 1195 8.24304483E-09
  1 1196 8.24463456E-09
  1 1197 8.18913144E-09
  1 1198 8.18652913E-09
  1 1199 8.23288270E-09
  1 1200 8.18328808E-09
  1 1201 8.23900314E-09
  1 1202 8.23363302E-09
  1 1203 8.23774296E-09
  1 1204 8.23422021E-09
  1 1205 8.24129033E-09
  1 1206 8.23028797E-09
  1 1207 8.25120158E-09
  1 1208 8.18025783E-09
  1 1209 8.26370485E-09
  1 1210 8.26257924E-09
  1 1211 8.26993426E-09
  1 1212 8.26428099E-09
  1 1213 8.27400594E-09
  1 1214 8.27228890E-09
  1 1215 8.28352688E-09
  1 1216 8.27252623E-09
  1 1217 8.27739902E-09
  1 1218 8.27285626E-09
  1 1219 8.25852155E-09
  1 1220 8.26234323E-09
  1 1221 8.25703506E-09
  1 1222 8.24651534E-09
  1 1223 8.26511892E-09
  1 1224 8.26839065E-09
  1 1225 8.17406987E-09
  1 1226 8.16089362E-09
  1 1227 8.26823553E-09
  1 1228 8.25380431E-09
  1 1229 8.28118896E-09
  1 1230 8.25864017E-09
  1 1231 8.26984175E-09
  1 1232 8.26111682E-09
  1 1233 8.32568515E-09
  1 1234 8.19778802E-09
  1 1235 8.40273585E-09
  1 1236 8.41889967E-09
  1 1237 8.43281840E-09
  1 1238 8.41006119E-09
  1 1239 8.45556509E-09
  1 1240 8.44750990E-09
  1 1241 8.47403234E-09
  1 1242 8.48303151E-09
  1 1243 8.46283963E-09
  1 1244 8.40854385E-09
  1 1245 8.39788306E-09
  1 1246 8.35489634E-09
  1 1247 8.41096737E-09
  1 1248 8.40793928E-09
  1 1249 8.42464141E-09
  1 1250 8.41328890E-09
  1 1251 8.49674053E-09
  1 1252 8.41982116E-09
  1 1253 8.49240526E-09
  1 1254 8.47143710E-09
  1 1255 8.49474830E-09
  1 1256 8.33573080E-09
  1 1257 8.51724080E-09
  1 1258 8.47606052E-09
  1 1259 8.53634539E-09
  1 1260 8.51293077E-09
  1 1261 8.61062975E-09
  1 1262 8.55175908E-09
  1 1263 8.92405801E-09
  1 1264 8.57681236E-09
  1 1265 8.62698051E-09
  1 1266 8.90926184E-09
  1 1267 8.54525999E-09
  1 1268 8.52064554E-09
  1 1269 8.58979029E-09
  1 1270 8.59233212E-09
  1 1271 8.65071675E-09
  1 1272 8.91925742E-09
  1 1273 8.92495897E-09
  1 1274 8.62917383E-09
  1 1275 8.58234052E-09
  1 1276 8.51101134E-09
  1 1277 8.89927106E-09
  1 1278 8.50379813E-09
  1 1279 8.50063683E-09
  1 1280 8.96529980E-09
  1 1281 8.34326661E-09
  1 1282 8.32806234E-09
  1 1283 8.33155361E-09
  1 1284 8.33984094E-09
  1 1285 8.34867003E-09
  1 1286 8.34424043E-09
  1 1287 8.34668286E-09