# File generated by Flopy version 3.9.1 on 02/09/2026 at 23:02:27.
BEGIN options
  SAVE_FLOWS
END options

BEGIN packages
  DISV6  triangle_caseB.disv  disv
  IC6  triangle_caseB.ic  ic
  CHD6  triangle_caseB.chd  chd
  NPF6  triangle_caseB.npf  npf
  WEL6  triangle_caseB.wel  well_package
  RCH6  triangle_caseB.rch  rch
  EVT6  triangle_caseB.evt  evt
  OC6  triangle_caseB.oc  oc
END packages

