# File generated by Flopy version 3.9.1 on 02/09/2026 at 23:02:29.
BEGIN options
  SAVE_FLOWS
END options

BEGIN dimensions
  MAXBOUND  3812
END dimensions

BEGIN period  1
  1 3 0.00000000E+00
  1 8 0.00000000E+00
  1 13 0.00000000E+00
  1 36 0.00000000E+00
  1 37 0.00000000E+00
  1 46 0.00000000E+00
  1 66 0.00000000E+00
  1 96 0.00000000E+00
  1 102 0.00000000E+00
  1 111 0.00000000E+00
  1 501 0.00000000E+00
  1 503 0.00000000E+00
  1 565 0.00000000E+00
  1 773 0.00000000E+00
  1 952 0.00000000E+00
  1 964 0.00000000E+00
  1 968 0.00000000E+00
  1 972 0.00000000E+00
  1 1618 0.00000000E+00
  1 1663 0.00000000E+00
  1 1908 0.00000000E+00
  1 1912 0.00000000E+00
  1 1914 0.00000000E+00
  1 1925 0.00000000E+00
  1 1997 0.00000000E+00
  1 2039 0.00000000E+00
  1 2041 0.00000000E+00
  1 2049 0.00000000E+00
  1 2077 0.00000000E+00
  1 2204 0.00000000E+00
  1 2211 0.00000000E+00
  1 2213 0.00000000E+00
  1 2221 0.00000000E+00
  1 2223 0.00000000E+00
  1 2232 0.00000000E+00
  1 2258 0.00000000E+00
  1 2281 0.00000000E+00
  1 3059 0.00000000E+00
  1 3062 0.00000000E+00
  1 3067 0.00000000E+00
  1 3071 0.00000000E+00
  1 3073 0.00000000E+00
  1 3076 0.00000000E+00
  1 3088 0.00000000E+00
  1 3102 0.00000000E+00
  1 3104 0.00000000E+00
  1 3114 0.00000000E+00
  1 3148 0.00000000E+00
  1 3255 0.00000000E+00
  1 3256 0.00000000E+00
  1 3258 0.00000000E+00
  1 3259 0.00000000E+00
  1 3262 0.00000000E+00
  1 3264 0.00000000E+00
  1 3277 0.00000000E+00
  1 3278 0.00000000E+00
  1 3279 0.00000000E+00
  1 3280 0.00000000E+00
  1 3281 0.00000000E+00
  1 3283 0.00000000E+00
  1 3284 0.00000000E+00
  1 3285 0.00000000E+00
  1 3286 0.00000000E+00
  1 3287 0.00000000E+00
  1 3290 0.00000000E+00
  1 3291 0.00000000E+00
  1 3292 0.00000000E+00
  1 3295 0.00000000E+00
  1 3296 0.00000000E+00
  1 3297 0.00000000E+00
  1 3298 0.00000000E+00
  1 3299 0.00000000E+00
  1 3305 0.00000000E+00
  1 3307 0.00000000E+00
  1 3309 0.00000000E+00
  1 3311 0.00000000E+00
  1 3312 0.00000000E+00
  1 3316 0.00000000E+00
  1 3319 0.00000000E+00
  1 3320 0.00000000E+00
  1 3322 0.00000000E+00
  1 3325 0.00000000E+00
  1 3329 0.00000000E+00
  1 3342 0.00000000E+00
  1 3350 0.00000000E+00
  1 3351 0.00000000E+00
  1 3353 0.00000000E+00
  1 3356 0.00000000E+00
  1 3357 0.00000000E+00
  1 3360 0.00000000E+00
  1 3391 0.00000000E+00
  1 3394 0.00000000E+00
  1 3400 0.00000000E+00
  1 3402 0.00000000E+00
  1 3411 0.00000000E+00
  1 3413 0.00000000E+00
  1 3414 0.00000000E+00
  1 3427 0.00000000E+00
  1 3429 0.00000000E+00
  1 3430 0.00000000E+00
  1 3432 0.00000000E+00
  1 3820 0.00000000E+00
  1 3824 0.00000000E+00
  1 3825 0.00000000E+00
  1 3829 0.00000000E+00
  1 3831 0.00000000E+00
  1 3832 0.00000000E+00
  1 3834 0.00000000E+00
  1 3842 0.00000000E+00
  1 3843 0.00000000E+00
  1 3846 0.00000000E+00
  1 3848 0.00000000E+00
  1 3849 0.00000000E+00
  1 3852 0.00000000E+00
  1 3853 0.00000000E+00
  1 3854 0.00000000E+00
  1 3856 0.00000000E+00
  1 3858 0.00000000E+00
  1 3860 0.00000000E+00
  1 3862 0.00000000E+00
  1 3865 0.00000000E+00
  1 3871 0.00000000E+00
  1 3878 0.00000000E+00
  1 3882 0.00000000E+00
  1 3884 0.00000000E+00
  1 3891 0.00000000E+00
  1 3893 0.00000000E+00
  1 3903 0.00000000E+00
  1 3904 0.00000000E+00
  1 3905 0.00000000E+00
  1 3906 0.00000000E+00
  1 3908 0.00000000E+00
  1 3921 0.00000000E+00
  1 3922 0.00000000E+00
  1 3924 0.00000000E+00
  1 3928 0.00000000E+00
  1 3930 0.00000000E+00
  1 3935 0.00000000E+00
  1 3940 0.00000000E+00
  1 3942 0.00000000E+00
  1 3943 0.00000000E+00
  1 3944 0.00000000E+00
  1 3946 0.00000000E+00
  1 3947 0.00000000E+00
  1 3950 0.00000000E+00
  1 3954 0.00000000E+00
  1 3956 0.00000000E+00
  1 3961 0.00000000E+00
  1 3964 0.00000000E+00
  1 3966 0.00000000E+00
  1 3972 0.00000000E+00
  1 3975 0.00000000E+00
  1 3977 0.00000000E+00
  1 3978 0.00000000E+00
  1 3979 0.00000000E+00
  1 3982 0.00000000E+00
  1 3985 0.00000000E+00
  1 3986 0.00000000E+00
  1 3989 0.00000000E+00
  1 3991 0.00000000E+00
  1 3992 0.00000000E+00
  1 3995 0.00000000E+00
  1 3996 0.00000000E+00
  1 3998 0.00000000E+00
  1 4000 0.00000000E+00
  1 4002 0.00000000E+00
  1 4020 0.00000000E+00
  1 4022 0.00000000E+00
  1 4037 0.00000000E+00
  1 4040 0.00000000E+00
  1 4047 0.00000000E+00
  1 4051 0.00000000E+00
  1 4052 0.00000000E+00
  1 4054 0.00000000E+00
  1 4055 0.00000000E+00
  1 4058 0.00000000E+00
  1 4061 0.00000000E+00
  1 4083 0.00000000E+00
  1 4086 0.00000000E+00
  1 4105 0.00000000E+00
  1 4106 0.00000000E+00
  1 4109 0.00000000E+00
  1 4110 0.00000000E+00
  1 4111 0.00000000E+00
  1 4117 0.00000000E+00
  1 4122 0.00000000E+00
  1 4125 0.00000000E+00
  1 4126 0.00000000E+00
  1 4127 0.00000000E+00
  1 4132 0.00000000E+00
  1 4135 0.00000000E+00
  1 4136 0.00000000E+00
  1 4137 0.00000000E+00
  1 4139 0.00000000E+00
  1 4140 0.00000000E+00
  1 4142 0.00000000E+00
  1 4144 0.00000000E+00
  1 4146 0.00000000E+00
  1 4147 0.00000000E+00
  1 4152 0.00000000E+00
  1 4156 0.00000000E+00
  1 4158 0.00000000E+00
  1 4165 0.00000000E+00
  1 4169 0.00000000E+00
  1 4170 0.00000000E+00
  1 4172 0.00000000E+00
  1 4173 0.00000000E+00
  1 4176 0.00000000E+00
  1 4178 0.00000000E+00
  1 4187 0.00000000E+00
  1 4189 0.00000000E+00
  1 4191 0.00000000E+00
  1 4195 0.00000000E+00
  1 4196 0.00000000E+00
  1 4201 0.00000000E+00
  1 4202 0.00000000E+00
  1 4206 0.00000000E+00
  1 4208 0.00000000E+00
  1 4209 0.00000000E+00
  1 4212 0.00000000E+00
  1 4213 0.00000000E+00
  1 4215 0.00000000E+00
  1 4216 0.00000000E+00
  1 4218 0.00000000E+00
  1 4220 0.00000000E+00
  1 4224 0.00000000E+00
  1 4227 0.00000000E+00
  1 4228 0.00000000E+00
  1 4230 0.00000000E+00
  1 4231 0.00000000E+00
  1 4233 0.00000000E+00
  1 4234 0.00000000E+00
  1 4235 0.00000000E+00
  1 4238 0.00000000E+00
  1 4240 0.00000000E+00
  1 4242 0.00000000E+00
  1 4244 0.00000000E+00
  1 4250 0.00000000E+00
  1 4260 0.00000000E+00
  1 4262 0.00000000E+00
  1 4266 0.00000000E+00
  1 4271 0.00000000E+00
  1 4272 0.00000000E+00
  1 4275 0.00000000E+00
  1 4291 0.00000000E+00
  1 4292 0.00000000E+00
  1 4349 0.00000000E+00
  1 4352 0.00000000E+00
  1 4355 0.00000000E+00
  1 4356 0.00000000E+00
  1 4358 0.00000000E+00
  1 4360 0.00000000E+00
  1 4388 0.00000000E+00
  1 4404 0.00000000E+00
  1 4409 0.00000000E+00
  1 4411 0.00000000E+00
  1 4413 0.00000000E+00
  1 4414 0.00000000E+00
  1 4415 0.00000000E+00
  1 4418 0.00000000E+00
  1 4420 0.00000000E+00
  1 4426 0.00000000E+00
  1 4428 0.00000000E+00
  1 4430 0.00000000E+00
  1 4441 0.00000000E+00
  1 4443 0.00000000E+00
  1 4448 0.00000000E+00
  1 4449 0.00000000E+00
  1 4450 0.00000000E+00
  1 4463 0.00000000E+00
  1 4465 0.00000000E+00
  1 4467 0.00000000E+00
  1 4470 0.00000000E+00
  1 4471 0.00000000E+00
  1 4474 0.00000000E+00
  1 4479 0.00000000E+00
  1 4481 0.00000000E+00
  1 4483 0.00000000E+00
  1 4485 0.00000000E+00
  1 4487 0.00000000E+00
  1 4488 0.00000000E+00
  1 4489 0.00000000E+00
  1 4497 0.00000000E+00
  1 4504 0.00000000E+00
  1 4506 0.00000000E+00
  1 4511 0.00000000E+00
  1 4512 0.00000000E+00
  1 4514 0.00000000E+00
  1 4519 0.00000000E+00
  1 4521 0.00000000E+00
  1 4522 0.00000000E+00
  1 4526 0.00000000E+00
  1 4528 0.00000000E+00
  1 4532 0.00000000E+00
  1 4535 0.00000000E+00
  1 4536 0.00000000E+00
  1 4538 0.00000000E+00
  1 4539 0.00000000E+00
  1 4540 0.00000000E+00
  1 4557 0.00000000E+00
  1 4566 0.00000000E+00
  1 4571 0.00000000E+00
  1 4573 0.00000000E+00
  1 4574 0.00000000E+00
  1 5595 0.00000000E+00
  1 5598 0.00000000E+00
  1 5626 0.00000000E+00
  1 5688 0.00000000E+00
  1 5689 0.00000000E+00
  1 5694 0.00000000E+00
  1 5716 0.00000000E+00
  1 5724 0.00000000E+00
  1 6074 0.00000000E+00
  1 6079 0.00000000E+00
  1 6084 0.00000000E+00
  1 6094 0.00000000E+00
  1 6098 0.00000000E+00
  1 6099 0.00000000E+00
  1 6102 0.00000000E+00
  1 6106 0.00000000E+00
  1 6114 0.00000000E+00
  1 6617 0.00000000E+00
  1 8067 0.00000000E+00
  1 8141 0.00000000E+00
  1 8143 0.00000000E+00
  1 8211 0.00000000E+00
  1 8403 0.00000000E+00
  1 8405 0.00000000E+00
  1 10137 0.00000000E+00
  1 10138 0.00000000E+00
  1 10142 0.00000000E+00
  1 10171 0.00000000E+00
  1 10174 0.00000000E+00
  1 10175 0.00000000E+00
  1 10177 0.00000000E+00
  1 10179 0.00000000E+00
  1 10185 0.00000000E+00
  1 10187 0.00000000E+00
  1 10190 0.00000000E+00
  1 10191 0.00000000E+00
  1 10195 0.00000000E+00
  1 10196 0.00000000E+00
  1 10203 0.00000000E+00
  1 10206 0.00000000E+00
  1 10208 0.00000000E+00
  1 10211 0.00000000E+00
  1 10214 0.00000000E+00
  1 10218 0.00000000E+00
  1 10272 0.00000000E+00
  1 10274 0.00000000E+00
  1 10277 0.00000000E+00
  1 10286 0.00000000E+00
  1 10302 0.00000000E+00
  1 10304 0.00000000E+00
  1 10310 0.00000000E+00
  1 10563 0.00000000E+00
  1 10569 0.00000000E+00
  1 10572 0.00000000E+00
  1 10581 0.00000000E+00
  1 10584 0.00000000E+00
  1 10590 0.00000000E+00
  1 10595 0.00000000E+00
  1 10664 0.00000000E+00
  1 10665 0.00000000E+00
  1 10671 0.00000000E+00
  1 10672 0.00000000E+00
  1 10678 0.00000000E+00
  1 10679 0.00000000E+00
  1 10683 0.00000000E+00
  1 10696 0.00000000E+00
  1 11384 0.00000000E+00
  1 11387 0.00000000E+00
  1 11390 0.00000000E+00
  1 11391 0.00000000E+00
  1 11394 0.00000000E+00
  1 11396 0.00000000E+00
  1 11397 0.00000000E+00
  1 11398 0.00000000E+00
  1 11400 0.00000000E+00
  1 11401 0.00000000E+00
  1 11404 0.00000000E+00
  1 11410 0.00000000E+00
  1 11417 0.00000000E+00
  1 11427 0.00000000E+00
  1 11431 0.00000000E+00
  1 11433 0.00000000E+00
  1 11438 0.00000000E+00
  1 11439 0.00000000E+00
  1 11440 0.00000000E+00
  1 11442 0.00000000E+00
  1 11443 0.00000000E+00
  1 11444 0.00000000E+00
  1 11446 0.00000000E+00
  1 11451 0.00000000E+00
  1 11454 0.00000000E+00
  1 11465 0.00000000E+00
  1 11469 0.00000000E+00
  1 11472 0.00000000E+00
  1 11473 0.00000000E+00
  1 11475 0.00000000E+00
  1 11476 0.00000000E+00
  1 11478 0.00000000E+00
  1 11483 0.00000000E+00
  1 11486 0.00000000E+00
  1 11489 0.00000000E+00
  1 11490 0.00000000E+00
  1 11493 0.00000000E+00
  1 11509 0.00000000E+00
  1 11520 0.00000000E+00
  1 11530 0.00000000E+00
  1 11544 0.00000000E+00
  1 11550 0.00000000E+00
  1 11552 0.00000000E+00
  1 11554 0.00000000E+00
  1 11556 0.00000000E+00
  1 11569 0.00000000E+00
  1 11570 0.00000000E+00
  1 11608 0.00000000E+00
  1 11611 0.00000000E+00
  1 11616 0.00000000E+00
  1 11622 0.00000000E+00
  1 11625 0.00000000E+00
  1 11628 0.00000000E+00
  1 11634 0.00000000E+00
  1 11635 0.00000000E+00
  1 11636 0.00000000E+00
  1 11639 0.00000000E+00
  1 11640 0.00000000E+00
  1 11642 0.00000000E+00
  1 11644 0.00000000E+00
  1 11646 0.00000000E+00
  1 11647 0.00000000E+00
  1 11648 0.00000000E+00
  1 11650 0.00000000E+00
  1 11654 0.00000000E+00
  1 11665 0.00000000E+00
  1 11671 0.00000000E+00
  1 11688 0.00000000E+00
  1 11700 0.00000000E+00
  1 11703 0.00000000E+00
  1 11704 0.00000000E+00
  1 11712 0.00000000E+00
  1 11722 0.00000000E+00
  1 11729 0.00000000E+00
  1 11730 0.00000000E+00
  1 11734 0.00000000E+00
  1 11737 0.00000000E+00
  1 11738 0.00000000E+00
  1 11740 0.00000000E+00
  1 11750 0.00000000E+00
  1 11764 0.00000000E+00
  1 11767 0.00000000E+00
  1 11768 0.00000000E+00
  1 11773 0.00000000E+00
  1 11774 0.00000000E+00
  1 11778 0.00000000E+00
  1 11779 0.00000000E+00
  1 11784 0.00000000E+00
  1 11785 0.00000000E+00
  1 11791 0.00000000E+00
  1 11796 0.00000000E+00
  1 11803 0.00000000E+00
  1 11804 0.00000000E+00
  1 11806 0.00000000E+00
  1 11813 0.00000000E+00
  1 11821 0.00000000E+00
  1 11830 0.00000000E+00
  1 11833 0.00000000E+00
  1 11836 0.00000000E+00
  1 11837 0.00000000E+00
  1 11838 0.00000000E+00
  1 11839 0.00000000E+00
  1 11840 0.00000000E+00
  1 11841 0.00000000E+00
  1 11939 0.00000000E+00
  1 11940 0.00000000E+00
  1 11944 0.00000000E+00
  1 11948 0.00000000E+00
  1 11949 0.00000000E+00
  1 11952 0.00000000E+00
  1 11965 0.00000000E+00
  1 11966 0.00000000E+00
  1 11967 0.00000000E+00
  1 11969 0.00000000E+00
  1 11971 0.00000000E+00
  1 11977 0.00000000E+00
  1 11980 0.00000000E+00
  1 12007 0.00000000E+00
  1 12009 0.00000000E+00
  1 12010 0.00000000E+00
  1 12016 0.00000000E+00
  1 12017 0.00000000E+00
  1 12020 0.00000000E+00
  1 12023 0.00000000E+00
  1 12024 0.00000000E+00
  1 12029 0.00000000E+00
  1 12034 0.00000000E+00
  1 12038 0.00000000E+00
  1 12045 0.00000000E+00
  1 12047 0.00000000E+00
  1 12049 0.00000000E+00
  1 12052 0.00000000E+00
  1 12054 0.00000000E+00
  1 12056 0.00000000E+00
  1 12076 0.00000000E+00
  1 12084 0.00000000E+00
  1 12087 0.00000000E+00
  1 12093 0.00000000E+00
  1 12097 0.00000000E+00
  1 12105 0.00000000E+00
  1 12106 0.00000000E+00
  1 12107 0.00000000E+00
  1 12109 0.00000000E+00
  1 12110 0.00000000E+00
  1 12112 0.00000000E+00
  1 12115 0.00000000E+00
  1 12125 0.00000000E+00
  1 12128 0.00000000E+00
  1 12151 0.00000000E+00
  1 12154 0.00000000E+00
  1 12155 0.00000000E+00
  1 12160 0.00000000E+00
  1 12163 0.00000000E+00
  1 12164 0.00000000E+00
  1 12165 0.00000000E+00
  1 12166 0.00000000E+00
  1 12167 0.00000000E+00
  1 12168 0.00000000E+00
  1 12174 0.00000000E+00
  1 12178 0.00000000E+00
  1 12179 0.00000000E+00
  1 12181 0.00000000E+00
  1 12182 0.00000000E+00
  1 12184 0.00000000E+00
  1 12187 0.00000000E+00
  1 12189 0.00000000E+00
  1 12192 0.00000000E+00
  1 12195 0.00000000E+00
  1 12197 0.00000000E+00
  1 12198 0.00000000E+00
  1 12199 0.00000000E+00
  1 12202 0.00000000E+00
  1 12217 0.00000000E+00
  1 12240 0.00000000E+00
  1 12246 0.00000000E+00
  1 12249 0.00000000E+00
  1 12251 0.00000000E+00
  1 12253 0.00000000E+00
  1 12255 0.00000000E+00
  1 12259 0.00000000E+00
  1 12261 0.00000000E+00
  1 12265 0.00000000E+00
  1 12271 0.00000000E+00
  1 12274 0.00000000E+00
  1 12276 0.00000000E+00
  1 12277 0.00000000E+00
  1 12285 0.00000000E+00
  1 12291 0.00000000E+00
  1 12302 0.00000000E+00
  1 12303 0.00000000E+00
  1 12307 0.00000000E+00
  1 12310 0.00000000E+00
  1 12312 0.00000000E+00
  1 12319 0.00000000E+00
  1 12321 0.00000000E+00
  1 12323 0.00000000E+00
  1 12325 0.00000000E+00
  1 12327 0.00000000E+00
  1 12330 0.00000000E+00
  1 12332 0.00000000E+00
  1 12337 0.00000000E+00
  1 12341 0.00000000E+00
  1 12346 0.00000000E+00
  1 12348 0.00000000E+00
  1 12350 0.00000000E+00
  1 12352 0.00000000E+00
  1 12354 0.00000000E+00
  1 12356 0.00000000E+00
  1 12358 0.00000000E+00
  1 12360 0.00000000E+00
  1 12362 0.00000000E+00
  1 12364 0.00000000E+00
  1 12366 0.00000000E+00
  1 12369 0.00000000E+00
  1 12382 0.00000000E+00
  1 12383 0.00000000E+00
  1 12384 0.00000000E+00
  1 12385 0.00000000E+00
  1 12386 0.00000000E+00
  1 12424 0.00000000E+00
  1 12451 0.00000000E+00
  1 12453 0.00000000E+00
  1 12459 0.00000000E+00
  1 12461 0.00000000E+00
  1 12463 0.00000000E+00
  1 12467 0.00000000E+00
  1 12471 0.00000000E+00
  1 12473 0.00000000E+00
  1 12475 0.00000000E+00
  1 12477 0.00000000E+00
  1 12479 0.00000000E+00
  1 12481 0.00000000E+00
  1 12491 0.00000000E+00
  1 12499 0.00000000E+00
  1 12501 0.00000000E+00
  1 12511 0.00000000E+00
  1 12513 0.00000000E+00
  1 12515 0.00000000E+00
  1 12517 0.00000000E+00
  1 12529 0.00000000E+00
  1 12531 0.00000000E+00
  1 12535 0.00000000E+00
  1 12538 0.00000000E+00
  1 12540 0.00000000E+00
  1 12542 0.00000000E+00
  1 12547 0.00000000E+00
  1 12548 0.00000000E+00
  1 12554 0.00000000E+00
  1 12555 0.00000000E+00
  1 12557 0.00000000E+00
  1 12559 0.00000000E+00
  1 12562 0.00000000E+00
  1 12563 0.00000000E+00
  1 12566 0.00000000E+00
  1 12567 0.00000000E+00
  1 12569 0.00000000E+00
  1 12572 0.00000000E+00
  1 12574 0.00000000E+00
  1 12576 0.00000000E+00
  1 12582 0.00000000E+00
  1 12586 0.00000000E+00
  1 12590 0.00000000E+00
  1 12596 0.00000000E+00
  1 12599 0.00000000E+00
  1 12601 0.00000000E+00
  1 12605 0.00000000E+00
  1 12607 0.00000000E+00
  1 12612 0.00000000E+00
  1 12614 0.00000000E+00
  1 12618 0.00000000E+00
  1 12634 0.00000000E+00
  1 12670 0.00000000E+00
  1 12675 0.00000000E+00
  1 12677 0.00000000E+00
  1 12679 0.00000000E+00
  1 12682 0.00000000E+00
  1 12685 0.00000000E+00
  1 12689 0.00000000E+00
  1 12692 0.00000000E+00
  1 12695 0.00000000E+00
  1 12699 0.00000000E+00
  1 12705 0.00000000E+00
  1 12708 0.00000000E+00
  1 12711 0.00000000E+00
  1 12713 0.00000000E+00
  1 12715 0.00000000E+00
  1 12717 0.00000000E+00
  1 12720 0.00000000E+00
  1 12722 0.00000000E+00
  1 12724 0.00000000E+00
  1 12726 0.00000000E+00
  1 12730 0.00000000E+00
  1 12733 0.00000000E+00
  1 12735 0.00000000E+00
  1 12737 0.00000000E+00
  1 12739 0.00000000E+00
  1 12741 0.00000000E+00
  1 12743 0.00000000E+00
  1 12746 0.00000000E+00
  1 12748 0.00000000E+00
  1 12750 0.00000000E+00
  1 12754 0.00000000E+00
  1 12756 0.00000000E+00
  1 12758 0.00000000E+00
  1 12760 0.00000000E+00
  1 12763 0.00000000E+00
  1 12767 0.00000000E+00
  1 12769 0.00000000E+00
  1 12773 0.00000000E+00
  1 12774 0.00000000E+00
  1 12775 0.00000000E+00
  1 12776 0.00000000E+00
  1 12777 0.00000000E+00
  1 12780 0.00000000E+00
  1 12783 0.00000000E+00
  1 12785 0.00000000E+00
  1 12787 0.00000000E+00
  1 12791 0.00000000E+00
  1 12793 0.00000000E+00
  1 12795 0.00000000E+00
  1 12797 0.00000000E+00
  1 12807 0.00000000E+00
  1 12809 0.00000000E+00
  1 12811 0.00000000E+00
  1 12813 0.00000000E+00
  1 12815 0.00000000E+00
  1 12819 0.00000000E+00
  1 12821 0.00000000E+00
  1 12823 0.00000000E+00
  1 12824 0.00000000E+00
  1 12826 0.00000000E+00
  1 12827 0.00000000E+00
  1 12828 0.00000000E+00
  1 12830 0.00000000E+00
  1 12848 0.00000000E+00
  1 12850 0.00000000E+00
  1 12852 0.00000000E+00
  1 12854 0.00000000E+00
  1 12857 0.00000000E+00
  1 12860 0.00000000E+00
  1 12870 0.00000000E+00
  1 12878 0.00000000E+00
  1 12880 0.00000000E+00
  1 12882 0.00000000E+00
  1 12885 0.00000000E+00
  1 12886 0.00000000E+00
  1 12887 0.00000000E+00
  1 12894 0.00000000E+00
  1 12895 0.00000000E+00
  1 12896 0.00000000E+00
  1 12897 0.00000000E+00
  1 12899 0.00000000E+00
  1 12903 0.00000000E+00
  1 12906 0.00000000E+00
  1 12909 0.00000000E+00
  1 12911 0.00000000E+00
  1 12918 0.00000000E+00
  1 12920 0.00000000E+00
  1 12922 0.00000000E+00
  1 12924 0.00000000E+00
  1 12926 0.00000000E+00
  1 12928 0.00000000E+00
  1 12931 0.00000000E+00
  1 12933 0.00000000E+00
  1 12935 0.00000000E+00
  1 12937 0.00000000E+00
  1 12939 0.00000000E+00
  1 12941 0.00000000E+00
  1 12946 0.00000000E+00
  1 12951 0.00000000E+00
  1 12958 0.00000000E+00
  1 12964 0.00000000E+00
  1 12966 0.00000000E+00
  1 12968 0.00000000E+00
  1 12978 0.00000000E+00
  1 12980 0.00000000E+00
  1 12982 0.00000000E+00
  1 12986 0.00000000E+00
  1 12991 0.00000000E+00
  1 12994 0.00000000E+00
  1 12997 0.00000000E+00
  1 12999 0.00000000E+00
  1 13005 0.00000000E+00
  1 13009 0.00000000E+00
  1 13015 0.00000000E+00
  1 13016 0.00000000E+00
  1 13020 0.00000000E+00
  1 13023 0.00000000E+00
  1 13025 0.00000000E+00
  1 13027 0.00000000E+00
  1 13034 0.00000000E+00
  1 13038 0.00000000E+00
  1 13043 0.00000000E+00
  1 13045 0.00000000E+00
  1 13047 0.00000000E+00
  1 13051 0.00000000E+00
  1 13053 0.00000000E+00
  1 13056 0.00000000E+00
  1 13063 0.00000000E+00
  1 13065 0.00000000E+00
  1 13069 0.00000000E+00
  1 13071 0.00000000E+00
  1 13079 0.00000000E+00
  1 13080 0.00000000E+00
  1 13085 0.00000000E+00
  1 13087 0.00000000E+00
  1 13089 0.00000000E+00
  1 13091 0.00000000E+00
  1 13099 0.00000000E+00
  1 13100 0.00000000E+00
  1 13104 0.00000000E+00
  1 13107 0.00000000E+00
  1 13115 0.00000000E+00
  1 13117 0.00000000E+00
  1 13119 0.00000000E+00
  1 13122 0.00000000E+00
  1 13125 0.00000000E+00
  1 13126 0.00000000E+00
  1 13127 0.00000000E+00
  1 13128 0.00000000E+00
  1 13132 0.00000000E+00
  1 13135 0.00000000E+00
  1 13138 0.00000000E+00
  1 13141 0.00000000E+00
  1 13144 0.00000000E+00
  1 13146 0.00000000E+00
  1 13148 0.00000000E+00
  1 13150 0.00000000E+00
  1 13152 0.00000000E+00
  1 13154 0.00000000E+00
  1 13157 0.00000000E+00
  1 13159 0.00000000E+00
  1 13161 0.00000000E+00
  1 13165 0.00000000E+00
  1 13168 0.00000000E+00
  1 13172 0.00000000E+00
  1 13177 0.00000000E+00
  1 13178 0.00000000E+00
  1 13179 0.00000000E+00
  1 13180 0.00000000E+00
  1 13181 0.00000000E+00
  1 13191 0.00000000E+00
  1 13193 0.00000000E+00
  1 13197 0.00000000E+00
  1 13199 0.00000000E+00
  1 13205 0.00000000E+00
  1 13208 0.00000000E+00
  1 13212 0.00000000E+00
  1 13214 0.00000000E+00
  1 13218 0.00000000E+00
  1 13223 0.00000000E+00
  1 13225 0.00000000E+00
  1 13228 0.00000000E+00
  1 13231 0.00000000E+00
  1 13238 0.00000000E+00
  1 13245 0.00000000E+00
  1 13258 0.00000000E+00
  1 13261 0.00000000E+00
  1 13270 0.00000000E+00
  1 13273 0.00000000E+00
  1 13276 0.00000000E+00
  1 13280 0.00000000E+00
  1 13283 0.00000000E+00
  1 13287 0.00000000E+00
  1 13289 0.00000000E+00
  1 13296 0.00000000E+00
  1 13300 0.00000000E+00
  1 13302 0.00000000E+00
  1 13303 0.00000000E+00
  1 13304 0.00000000E+00
  1 13311 0.00000000E+00
  1 13313 0.00000000E+00
  1 13322 0.00000000E+00
  1 13326 0.00000000E+00
  1 13329 0.00000000E+00
  1 13331 0.00000000E+00
  1 13334 0.00000000E+00
  1 13336 0.00000000E+00
  1 13339 0.00000000E+00
  1 13342 0.00000000E+00
  1 13345 0.00000000E+00
  1 13347 0.00000000E+00
  1 13349 0.00000000E+00
  1 13352 0.00000000E+00
  1 13354 0.00000000E+00
  1 13357 0.00000000E+00
  1 13360 0.00000000E+00
  1 13366 0.00000000E+00
  1 13368 0.00000000E+00
  1 13372 0.00000000E+00
  1 13376 0.00000000E+00
  1 13378 0.00000000E+00
  1 13380 0.00000000E+00
  1 13382 0.00000000E+00
  1 13386 0.00000000E+00
  1 13393 0.00000000E+00
  1 13398 0.00000000E+00
  1 13400 0.00000000E+00
  1 13402 0.00000000E+00
  1 13418 0.00000000E+00
  1 13421 0.00000000E+00
  1 13423 0.00000000E+00
  1 13439 0.00000000E+00
  1 13450 0.00000000E+00
  1 13459 0.00000000E+00
  1 13460 0.00000000E+00
  1 13461 0.00000000E+00
  1 13463 0.00000000E+00
  1 13468 0.00000000E+00
  1 13482 0.00000000E+00
  1 13484 0.00000000E+00
  1 13486 0.00000000E+00
  1 13489 0.00000000E+00
  1 13494 0.00000000E+00
  1 13498 0.00000000E+00
  1 13500 0.00000000E+00
  1 13511 0.00000000E+00
  1 13549 0.00000000E+00
  1 13559 0.00000000E+00
  1 13561 0.00000000E+00
  1 13562 0.00000000E+00
  1 13563 0.00000000E+00
  1 13564 0.00000000E+00
  1 13565 0.00000000E+00
  1 13566 0.00000000E+00
  1 13567 0.00000000E+00
  1 13587 0.00000000E+00
  1 13595 0.00000000E+00
  1 13600 0.00000000E+00
  1 13610 0.00000000E+00
  1 13616 0.00000000E+00
  1 13633 0.00000000E+00
  1 13640 0.00000000E+00
  1 13641 0.00000000E+00
  1 13642 0.00000000E+00
  1 13656 0.00000000E+00
  1 13659 0.00000000E+00
  1 13660 0.00000000E+00
  1 13701 0.00000000E+00
  1 13702 0.00000000E+00
  1 13704 0.00000000E+00
  1 13707 0.00000000E+00
  1 13709 0.00000000E+00
  1 13710 0.00000000E+00
  1 13713 0.00000000E+00
  1 13715 0.00000000E+00
  1 13716 0.00000000E+00
  1 13723 0.00000000E+00
  1 13724 0.00000000E+00
  1 13741 0.00000000E+00
  1 13742 0.00000000E+00
  1 13816 0.00000000E+00
  1 13841 0.00000000E+00
  1 13850 0.00000000E+00
  1 13853 0.00000000E+00
  1 13860 0.00000000E+00
  1 13863 0.00000000E+00
  1 13870 0.00000000E+00
  1 13871 0.00000000E+00
  1 13872 0.00000000E+00
  1 13873 0.00000000E+00
  1 13874 0.00000000E+00
  1 13875 0.00000000E+00
  1 13881 0.00000000E+00
  1 13883 0.00000000E+00
  1 13890 0.00000000E+00
  1 13903 0.00000000E+00
  1 13916 0.00000000E+00
  1 13918 0.00000000E+00
  1 13919 0.00000000E+00
  1 13920 0.00000000E+00
  1 13979 0.00000000E+00
  1 13980 0.00000000E+00
  1 13981 0.00000000E+00
  1 13982 0.00000000E+00
  1 14008 0.00000000E+00
  1 14029 0.00000000E+00
  1 14036 0.00000000E+00
  1 14037 0.00000000E+00
  1 14038 0.00000000E+00
  1 14039 0.00000000E+00
  1 14046 0.00000000E+00
  1 14047 0.00000000E+00
  1 14071 0.00000000E+00
  1 14074 0.00000000E+00
  1 14097 0.00000000E+00
  1 14099 0.00000000E+00
  1 14100 0.00000000E+00
  1 14110 0.00000000E+00
  1 14115 0.00000000E+00
  1 14141 0.00000000E+00
  1 14159 0.00000000E+00
  1 14160 0.00000000E+00
  1 14161 0.00000000E+00
  1 14175 0.00000000E+00
  1 14176 0.00000000E+00
  1 14187 0.00000000E+00
  1 14233 0.00000000E+00
  1 14242 0.00000000E+00
  1 14246 0.00000000E+00
  1 14267 0.00000000E+00
  1 14339 0.00000000E+00
  1 14342 0.00000000E+00
  1 14346 0.00000000E+00
  1 14360 0.00000000E+00
  1 14362 0.00000000E+00
  1 14384 0.00000000E+00
  1 14385 0.00000000E+00
  1 14393 0.00000000E+00
  1 14409 0.00000000E+00
  1 14437 0.00000000E+00
  1 14439 0.00000000E+00
  1 14487 0.00000000E+00
  1 14518 0.00000000E+00
  1 14587 0.00000000E+00
  1 14588 0.00000000E+00
  1 14591 0.00000000E+00
  1 14592 0.00000000E+00
  1 14599 0.00000000E+00
  1 14600 0.00000000E+00
  1 14602 0.00000000E+00
  1 14604 0.00000000E+00
  1 14606 0.00000000E+00
  1 14609 0.00000000E+00
  1 14610 0.00000000E+00
  1 14647 0.00000000E+00
  1 14648 0.00000000E+00
  1 14726 0.00000000E+00
  1 14774 0.00000000E+00
  1 14775 0.00000000E+00
  1 14830 0.00000000E+00
  1 14831 0.00000000E+00
  1 14836 0.00000000E+00
  1 14837 0.00000000E+00
  1 14846 0.00000000E+00
  1 14847 0.00000000E+00
  1 14856 0.00000000E+00
  1 14857 0.00000000E+00
  1 14858 0.00000000E+00
  1 14859 0.00000000E+00
  1 14872 0.00000000E+00
  1 14873 0.00000000E+00
  1 14874 0.00000000E+00
  1 14875 0.00000000E+00
  1 14904 0.00000000E+00
  1 14905 0.00000000E+00
  1 14906 0.00000000E+00
  1 14907 0.00000000E+00
  1 14916 0.00000000E+00
  1 14917 0.00000000E+00
  1 14928 0.00000000E+00
  1 14929 0.00000000E+00
  1 14930 0.00000000E+00
  1 14931 0.00000000E+00
  1 14932 0.00000000E+00
  1 14933 0.00000000E+00
  1 14934 0.00000000E+00
  1 14935 0.00000000E+00
  1 14936 0.00000000E+00
  1 14937 0.00000000E+00
  1 14940 0.00000000E+00
  1 14941 0.00000000E+00
  1 14944 0.00000000E+00
  1 14945 0.00000000E+00
  1 14960 0.00000000E+00
  1 14965 0.00000000E+00
  1 14970 0.00000000E+00
  1 14971 0.00000000E+00
  1 14990 0.00000000E+00
  1 14994 0.00000000E+00
  1 14996 0.00000000E+00
  1 14999 0.00000000E+00
  1 15003 0.00000000E+00
  1 15004 0.00000000E+00
  1 15005 0.00000000E+00
  1 15006 0.00000000E+00
  1 15007 0.00000000E+00
  1 15008 0.00000000E+00
  1 15011 0.00000000E+00
  1 15012 0.00000000E+00
  1 15013 0.00000000E+00
  1 15014 0.00000000E+00
  1 15015 0.00000000E+00
  1 15016 0.00000000E+00
  1 15017 0.00000000E+00
  1 15018 0.00000000E+00
  1 15019 0.00000000E+00
  1 15020 0.00000000E+00
  1 15021 0.00000000E+00
  1 15022 0.00000000E+00
  1 15023 0.00000000E+00
  1 15024 0.00000000E+00
  1 15043 0.00000000E+00
  1 15044 0.00000000E+00
  1 15045 0.00000000E+00
  1 15046 0.00000000E+00
  1 15075 0.00000000E+00
  1 15076 0.00000000E+00
  1 15077 0.00000000E+00
  1 15078 0.00000000E+00
  1 15082 0.00000000E+00
  1 15084 0.00000000E+00
  1 15085 0.00000000E+00
  1 15088 0.00000000E+00
  1 15089 0.00000000E+00
  1 15090 0.00000000E+00
  1 15091 0.00000000E+00
  1 15094 0.00000000E+00
  1 15095 0.00000000E+00
  1 15096 0.00000000E+00
  1 15097 0.00000000E+00
  1 15098 0.00000000E+00
  1 15099 0.00000000E+00
  1 15100 0.00000000E+00
  1 15101 0.00000000E+00
  1 15102 0.00000000E+00
  1 15103 0.00000000E+00
  1 15104 0.00000000E+00
  1 15105 0.00000000E+00
  1 15106 0.00000000E+00
  1 15107 0.00000000E+00
  1 15108 0.00000000E+00
  1 15109 0.00000000E+00
  1 15110 0.00000000E+00
  1 15111 0.00000000E+00
  1 15112 0.00000000E+00
  1 15113 0.00000000E+00
  1 15120 0.00000000E+00
  1 15121 0.00000000E+00
  1 15123 0.00000000E+00
  1 15133 0.00000000E+00
  1 15146 0.00000000E+00
  1 15155 0.00000000E+00
  1 15157 0.00000000E+00
  1 15160 0.00000000E+00
  1 15163 0.00000000E+00
  1 15164 0.00000000E+00
  1 15165 0.00000000E+00
  1 15173 0.00000000E+00
  1 15176 0.00000000E+00
  1 15177 0.00000000E+00
  1 15181 0.00000000E+00
  1 15184 0.00000000E+00
  1 15186 0.00000000E+00
  1 15187 0.00000000E+00
  1 15188 0.00000000E+00
  1 15192 0.00000000E+00
  1 15195 0.00000000E+00
  1 15197 0.00000000E+00
  1 15198 0.00000000E+00
  1 15200 0.00000000E+00
  1 15202 0.00000000E+00
  1 15203 0.00000000E+00
  1 15204 0.00000000E+00
  1 15208 0.00000000E+00
  1 15211 0.00000000E+00
  1 15213 0.00000000E+00
  1 15216 0.00000000E+00
  1 15220 0.00000000E+00
  1 15223 0.00000000E+00
  1 15225 0.00000000E+00
  1 15229 0.00000000E+00
  1 15231 0.00000000E+00
  1 15232 0.00000000E+00
  1 15233 0.00000000E+00
  1 15237 0.00000000E+00
  1 15240 0.00000000E+00
  1 15243 0.00000000E+00
  1 15251 0.00000000E+00
  1 15254 0.00000000E+00
  1 15255 0.00000000E+00
  1 15268 0.00000000E+00
  1 15270 0.00000000E+00
  1 15271 0.00000000E+00
  1 15273 0.00000000E+00
  1 15274 0.00000000E+00
  1 15277 0.00000000E+00
  1 15281 0.00000000E+00
  1 15282 0.00000000E+00
  1 15283 0.00000000E+00
  1 15284 0.00000000E+00
  1 15285 0.00000000E+00
  1 15286 0.00000000E+00
  1 15290 0.00000000E+00
  1 15292 0.00000000E+00
  1 15296 0.00000000E+00
  1 15299 0.00000000E+00
  1 15301 0.00000000E+00
  1 15305 0.00000000E+00
  1 15307 0.00000000E+00
  1 15311 0.00000000E+00
  1 15314 0.00000000E+00
  1 15317 0.00000000E+00
  1 15321 0.00000000E+00
  1 15324 0.00000000E+00
  1 15327 0.00000000E+00
  1 15331 0.00000000E+00
  1 15333 0.00000000E+00
  1 15334 0.00000000E+00
  1 15335 0.00000000E+00
  1 15338 0.00000000E+00
  1 15339 0.00000000E+00
  1 15341 0.00000000E+00
  1 15343 0.00000000E+00
  1 15344 0.00000000E+00
  1 15349 0.00000000E+00
  1 15351 0.00000000E+00
  1 15353 0.00000000E+00
  1 15354 0.00000000E+00
  1 15358 0.00000000E+00
  1 15380 0.00000000E+00
  1 15381 0.00000000E+00
  1 15390 0.00000000E+00
  1 15391 0.00000000E+00
  1 15392 0.00000000E+00
  1 15393 0.00000000E+00
  1 15397 0.00000000E+00
  1 15399 0.00000000E+00
  1 15404 0.00000000E+00
  1 15406 0.00000000E+00
  1 15410 0.00000000E+00
  1 15414 0.00000000E+00
  1 15417 0.00000000E+00
  1 15421 0.00000000E+00
  1 15424 0.00000000E+00
  1 15427 0.00000000E+00
  1 15429 0.00000000E+00
  1 15433 0.00000000E+00
  1 15436 0.00000000E+00
  1 15438 0.00000000E+00
  1 15439 0.00000000E+00
  1 15440 0.00000000E+00
  1 15443 0.00000000E+00
  1 15447 0.00000000E+00
  1 15449 0.00000000E+00
  1 15452 0.00000000E+00
  1 15456 0.00000000E+00