# File generated by Flopy version 3.9.1 on 02/12/2026 at 09:25:12.
BEGIN options
END options

BEGIN timing
  TDIS6  triangle_caseD.tdis
END timing

BEGIN models
  gwf6  triangle_caseD.nam  triangle_cased
END models

BEGIN exchanges
END exchanges

BEGIN solutiongroup  1
  ims6  triangle_caseD.ims  triangle_cased
END solutiongroup  1

