# File generated by Flopy version 3.9.1 on 02/12/2026 at 09:25:14.
BEGIN options
  FIXED_CELL
  PRINT_FLOWS
  SAVE_FLOWS
END options

BEGIN dimensions
  MAXBOUND  32515
END dimensions

BEGIN period  1
  1 1 1.62010987E-08
  1 2 1.61890247E-08
  1 3 1.61236501E-08
  1 4 1.61594404E-08
  1 5 1.61237982E-08
  1 6 1.61239175E-08
  1 7 1.88772244E-09
  1 8 1.63798663E-08
  1 9 1.87719873E-09
  1 10 1.61233718E-08
  1 11 1.61233127E-08
  1 12 1.61236106E-08
  1 13 1.88430690E-09
  1 14 1.88429974E-09
  1 15 1.61234468E-08
  1 16 1.88427352E-09
  1 17 1.88433353E-09
  1 18 1.61232775E-08
  1 19 1.62892896E-08
  1 20 1.63115357E-08
  1 21 1.61877484E-08
  1 22 1.61863394E-08
  1 23 1.88430290E-09
  1 24 1.61865247E-08
  1 25 1.62292725E-08
  1 26 1.62008036E-08
  1 27 1.89157432E-09
  1 28 1.88429989E-09
  1 29 1.61863664E-08
  1 30 1.89155646E-09
  1 31 1.61859646E-08
  1 32 1.61860845E-08
  1 33 1.88428455E-09
  1 34 1.89159071E-09
  1 35 1.61861167E-08
  1 36 1.87717452E-09
  1 37 1.88434346E-09
  1 38 1.63830547E-08
  1 39 1.35778355E-08
  1 40 1.82602214E-09
  1 41 1.88425983E-09
  1 42 1.61233140E-08
  1 43 1.61232429E-08
  1 44 1.61232626E-08
  1 45 1.88427385E-09
  1 46 1.88426758E-09
  1 47 1.61234952E-08
  1 48 1.88426621E-09
  1 49 1.61113910E-08
  1 50 1.61232336E-08
  1 51 1.87769929E-09
  1 52 1.61316526E-08
  1 53 1.61235658E-08
  1 54 1.61234681E-08
  1 55 1.88427423E-09
  1 56 1.88428906E-09
  1 57 1.61235112E-08
  1 58 1.88429317E-09
  1 59 1.87726915E-09
  1 60 1.61333606E-08
  1 61 1.88426179E-09
  1 62 1.87727002E-09
  1 63 1.60632886E-08
  1 64 1.87727745E-09
  1 65 1.87725318E-09
  1 66 1.60631850E-08
  1 67 1.87720834E-09
  1 68 1.60631730E-08
  1 69 1.60630257E-08
  1 70 1.87725052E-09
  1 71 1.87723401E-09
  1 72 1.60627129E-08
  1 73 1.60625641E-08
  1 74 1.87718219E-09
  1 75 1.87720515E-09
  1 76 1.60626428E-08
  1 77 1.87725566E-09
  1 78 1.60628424E-08
  1 79 1.88427765E-09
  1 80 1.60627696E-08
  1 81 1.61238010E-08
  1 82 1.88279467E-09
  1 83 1.89160001E-09
  1 84 1.23414470E-08
  1 85 1.63724858E-08
  1 86 1.63597201E-08
  1 87 1.63542088E-08
  1 88 1.63691716E-08
  1 89 1.63540075E-08
  1 90 1.91117662E-09
  1 91 1.63423242E-08
  1 92 1.91144012E-09
  1 93 1.90954985E-09
  1 94 1.91117533E-09
  1 95 1.63537171E-08
  1 96 1.63402631E-08
  1 97 1.90951523E-09
  1 98 1.91106920E-09
  1 99 1.63398740E-08
  1 100 1.90686446E-09
  1 101 1.06211983E-08
  1 102 1.63468608E-08
  1 103 1.63391589E-08
  1 104 1.63396379E-08
  1 105 1.63024242E-08
  1 106 1.63382689E-08
  1 107 1.15112596E-08
  1 108 1.90894482E-09
  1 109 1.69698505E-08
  1 110 1.63355544E-08
  1 111 1.62628148E-08
  1 112 1.62625141E-08
  1 113 1.90150569E-09
  1 114 1.90006370E-09
  1 115 1.62532022E-08
  1 116 1.62621654E-08
  1 117 1.60838947E-08
  1 118 1.62536983E-08
  1 119 1.62597447E-08
  1 120 1.90047802E-09
  1 121 1.69648138E-08
  1 122 1.90937034E-09
  1 123 1.40430914E-08
  1 124 1.90017059E-09
  1 125 1.89175554E-09
  1 126 1.61876623E-08
  1 127 1.62522768E-08
  1 128 1.62526504E-08
  1 129 1.89929848E-09
  1 130 1.89180149E-09
  1 131 1.90043679E-09
  1 132 1.89928210E-09
  1 133 1.61864323E-08
  1 134 1.61863301E-08
  1 135 1.89172521E-09
  1 136 1.89157361E-09
  1 137 1.61867792E-08
  1 138 1.61865477E-08
  1 139 1.89178243E-09
  1 140 1.89176116E-09
  1 141 1.61868175E-08
  1 142 1.89174256E-09
  1 143 1.90036251E-09
  1 144 1.61988906E-08
  1 145 1.89931165E-09
  1 146 1.62519867E-08
  1 147 1.62530854E-08
  1 148 1.62522810E-08
  1 149 1.89943598E-09
  1 150 1.89923600E-09
  1 151 1.62522599E-08
  1 152 1.89932388E-09
  1 153 1.62520344E-08
  1 154 1.62523004E-08
  1 155 1.89928324E-09
  1 156 1.89924107E-09
  1 157 1.62520413E-08
  1 158 1.62522641E-08
  1 159 1.89156547E-09
  1 160 1.89927351E-09
  1 161 1.62535275E-08
  1 162 1.89928668E-09
  1 163 1.82631233E-09
  1 164 1.62521763E-08
  1 165 1.62526158E-08
  1 166 1.89165253E-09
  1 167 1.89939384E-09
  1 168 1.90954322E-09
  1 169 1.56227352E-08
  1 170 1.89944027E-09
  1 171 1.60889172E-08
  1 172 1.60760861E-08
  1 173 1.60629817E-08
  1 174 1.87718815E-09
  1 175 1.87718570E-09
  1 176 1.60624877E-08
  1 177 1.60625145E-08
  1 178 1.60621365E-08
  1 179 1.58383377E-08
  1 180 1.51366933E-08
  1 181 1.60622682E-08
  1 182 1.59648826E-08
  1 183 1.87713592E-09
  1 184 1.88082895E-09
  1 185 1.60622492E-08
  1 186 1.88073929E-09
  1 187 1.60625269E-08
  1 188 1.61104079E-08
  1 189 1.60623381E-08
  1 190 1.87715565E-09
  1 191 1.60621821E-08
  1 192 1.87714527E-09
  1 193 1.87713705E-09
  1 194 1.60621603E-08
  1 195 1.87715663E-09
  1 196 1.60621325E-08
  1 197 1.60621311E-08
  1 198 1.60621782E-08
  1 199 1.87712767E-09
  1 200 1.88085380E-09
  1 201 1.60920933E-08
  1 202 1.88063944E-09
  1 203 1.88058451E-09
  1 204 1.60921364E-08
  1 205 1.87713980E-09
  1 206 1.87713478E-09
  1 207 1.87715274E-09
  1 208 1.60622487E-08
  1 209 1.87717991E-09
  1 210 1.88051731E-09
  1 211 1.60909174E-08
  1 212 1.88042403E-09
  1 213 1.60904922E-08
  1 214 1.88043684E-09
  1 215 1.88044352E-09
  1 216 1.60909647E-08
  1 217 1.88041321E-09
  1 218 1.60910205E-08
  1 219 1.84749649E-09
  1 220 1.88037083E-09
  1 221 1.60907857E-08
  1 222 1.85146795E-09
  1 223 1.60905604E-08
  1 224 1.88039723E-09
  1 225 1.88038607E-09
  1 226 1.60906582E-08
  1 227 1.88042334E-09
  1 228 1.60904979E-08
  1 229 1.60913972E-08
  1 230 1.88043485E-09
  1 231 1.60917442E-08
  1 232 1.88047607E-09
  1 233 1.60922614E-08
  1 234 1.60931627E-08
  1 235 1.88078661E-09
  1 236 1.60919907E-08
  1 237 1.88051426E-09
  1 238 1.60925919E-08
  1 239 1.60932895E-08
  1 240 1.60933687E-08
  1 241 1.88068644E-09
  1 242 1.60935522E-08
  1 243 1.60915926E-08
  1 244 1.88088906E-09
  1 245 1.88080799E-09
  1 246 1.60931980E-08
  1 247 1.88070729E-09
  1 248 1.60914514E-08
  1 249 1.88064310E-09
  1 250 1.88056687E-09
  1 251 1.88048041E-09
  1 252 1.61335051E-08
  1 253 1.82659002E-09
  1 254 1.33146526E-08
  1 255 1.61949549E-08
  1 256 1.89306427E-09
  1 257 1.61967104E-08
  1 258 1.89285416E-09
  1 259 1.89266922E-09
  1 260 1.61962328E-08
  1 261 1.89290399E-09
  1 262 1.61975924E-08
  1 263 1.61995949E-08
  1 264 1.89361289E-09
  1 265 1.61967798E-08
  1 266 1.90553215E-09
  1 267 1.89282618E-09
  1 268 1.61984379E-08
  1 269 1.89382157E-09
  1 270 1.62003722E-08
  1 271 1.61919378E-08
  1 272 1.89316579E-09
  1 273 1.61903501E-08
  1 274 1.89197894E-09
  1 275 1.61900685E-08
  1 276 1.87716106E-09
  1 277 1.89198453E-09
  1 278 1.61928884E-08
  1 279 1.89209082E-09
  1 280 1.61905575E-08
  1 281 1.61907524E-08
  1 282 1.61951773E-08
  1 283 1.89173694E-09
  1 284 1.61912827E-08
  1 285 1.61920524E-08
  1 286 1.89185118E-09
  1 287 1.89177898E-09
  1 288 1.61901960E-08
  1 289 1.89186967E-09
  1 290 1.61936527E-08
  1 291 1.89194673E-09
  1 292 1.89229123E-09
  1 293 1.89186849E-09
  1 294 1.62038266E-08
  1 295 1.63045495E-08
  1 296 1.90548775E-09
  1 297 1.63078500E-08
  1 298 1.90563885E-09
  1 299 1.90572544E-09
  1 300 1.63034919E-08
  1 301 1.90578894E-09
  1 302 1.63056290E-08
  1 303 1.63095831E-08
  1 304 1.90603343E-09
  1 305 1.90582439E-09
  1 306 1.63089500E-08
  1 307 1.68955611E-08
  1 308 1.97454307E-09
  1 309 1.68956271E-08
  1 310 1.90610756E-09
  1 311 1.90593456E-09
  1 312 1.97448159E-09
  1 313 1.96442834E-09
  1 314 1.60906365E-08
  1 315 1.96748535E-09
  1 316 1.69000764E-08
  1 317 1.69062023E-08
  1 318 1.68967980E-08
  1 319 1.89322984E-09
  1 320 1.62012597E-08
  1 321 1.62047168E-08
  1 322 1.97560132E-09
  1 323 1.69012273E-08
  1 324 1.69022493E-08
  1 325 1.97518816E-09
  1 326 1.97593629E-09
  1 327 1.69059733E-08
  1 328 1.69077982E-08
  1 329 1.97494478E-09
  1 330 1.97605339E-09
  1 331 1.68979739E-08
  1 332 1.97609511E-09
  1 333 1.69049441E-08
  1 334 1.97598195E-09
  1 335 1.89387344E-09
  1 336 1.63037751E-08
  1 337 1.62337722E-08
  1 338 1.89236271E-09
  1 339 1.89187240E-09
  1 340 1.97650008E-09
  1 341 1.89930210E-09
  1 342 1.69535289E-08
  1 343 1.61523688E-08
  1 344 1.23765461E-08
  1 345 1.63587945E-08
  1 346 1.63580520E-08
  1 347 1.95866001E-09
  1 348 1.63579688E-08
  1 349 1.62426743E-08
  1 350 1.39210711E-08
  1 351 1.91204312E-09
  1 352 1.63605464E-08
  1 353 1.63591158E-08
  1 354 1.63603382E-08
  1 355 1.91208929E-09
  1 356 1.91195927E-09
  1 357 1.63598839E-08
  1 358 1.91198806E-09
  1 359 1.92230423E-09
  1 360 1.63609250E-08
  1 361 1.60186465E-08
  1 362 1.87094404E-09
  1 363 1.60138652E-08
  1 364 1.87100283E-09
  1 365 1.87093390E-09
  1 366 1.60099790E-08
  1 367 1.87107067E-09
  1 368 1.60105416E-08
  1 369 1.63577712E-08
  1 370 1.63574494E-08
  1 371 1.91154625E-09
  1 372 1.91187299E-09
  1 373 1.89301617E-09
  1 374 1.63571222E-08
  1 375 1.60212010E-08
  1 376 1.91161210E-09
  1 377 1.60467824E-08
  1 378 1.61321871E-08
  1 379 1.60097263E-08
  1 380 1.60029204E-08
  1 381 1.24298212E-08
  1 382 1.95983812E-09
  1 383 1.63657780E-08
  1 384 1.63624871E-08
  1 385 1.64497748E-08
  1 386 1.64493160E-08
  1 387 1.93622936E-09
  1 388 1.64490374E-08
  1 389 1.64108405E-08
  1 390 1.38601289E-08
  1 391 1.64510871E-08
  1 392 1.64511483E-08
  1 393 1.92260963E-09
  1 394 1.92729592E-09
  1 395 1.64499427E-08
  1 396 1.64509962E-08
  1 397 1.92250956E-09
  1 398 1.92568021E-09
  1 399 1.64502559E-08
  1 400 1.92256112E-09
  1 401 1.93054536E-09
  1 402 1.64506558E-08
  1 403 1.91648759E-09
  1 404 1.63609834E-08
  1 405 1.63610332E-08
  1 406 1.63606589E-08
  1 407 1.92158996E-09
  1 408 1.91206397E-09
  1 409 1.63650648E-08
  1 410 1.91208371E-09
  1 411 1.64487792E-08
  1 412 1.64490555E-08
  1 413 1.92231215E-09
  1 414 1.92219545E-09
  1 415 1.64477926E-08
  1 416 1.91213036E-09
  1 417 1.92223144E-09
  1 418 1.64482022E-08
  1 419 1.64473779E-08
  1 420 1.92217036E-09
  1 421 1.92223136E-09
  1 422 1.91251707E-09
  1 423 1.63585931E-08
  1 424 1.92248365E-09
  1 425 1.94358370E-09
  1 426 1.59357064E-08
  1 427 1.55903847E-08
  1 428 1.01449823E-08
  1 429 1.55456141E-08
  1 430 1.37752267E-08
  1 431 1.81575357E-09
  1 432 1.82565925E-09
  1 433 1.55244364E-08
  1 434 1.55676395E-08
  1 435 1.57851567E-08
  1 436 1.57228794E-08
  1 437 1.56634935E-08
  1 438 1.56629288E-08
  1 439 1.82944150E-09
  1 440 1.82788230E-09
  1 441 1.56272526E-08
  1 442 1.87104317E-09
  1 443 1.55608174E-08
  1 444 1.58747832E-08
  1 445 1.55244869E-08
  1 446 1.81446938E-09
  1 447 1.55132483E-08
  1 448 1.81317043E-09
  1 449 1.81307697E-09
  1 450 1.55145690E-08
  1 451 1.81312765E-09
  1 452 1.55129126E-08
  1 453 1.55122201E-08
  1 454 1.55124449E-08
  1 455 1.81296546E-09
  1 456 1.55120084E-08
  1 457 1.55130638E-08
  1 458 1.81293918E-09
  1 459 1.81277931E-09
  1 460 1.55141551E-08
  1 461 1.81296768E-09
  1 462 1.81170119E-09
  1 463 1.81304738E-09
  1 464 1.55345631E-08
  1 465 1.81285425E-09
  1 466 1.91161848E-09
  1 467 1.60094597E-08
  1 468 1.87097401E-09
  1 469 1.86867761E-09
  1 470 1.87096124E-09
  1 471 1.87091709E-09
  1 472 1.60097210E-08
  1 473 1.87101505E-09
  1 474 1.60095813E-08
  1 475 1.60119336E-08
  1 476 1.87088367E-09
  1 477 1.87092266E-09
  1 478 1.60115840E-08
  1 479 1.60097480E-08
  1 480 1.87101530E-09
  1 481 1.60105733E-08
  1 482 1.60102575E-08
  1 483 1.87094979E-09
  1 484 1.60094590E-08
  1 485 1.87095636E-09
  1 486 1.60098968E-08
  1 487 1.60111587E-08
  1 488 1.87096611E-09
  1 489 1.87107819E-09
  1 490 1.87105694E-09
  1 491 1.86549013E-09
  1 492 1.60112469E-08
  1 493 1.87106999E-09
  1 494 1.60114847E-08
  1 495 1.60129010E-08
  1 496 1.60131224E-08
  1 497 1.87123856E-09
  1 498 1.87126450E-09
  1 499 1.60126221E-08
  1 500 1.60123494E-08
  1 501 1.87110185E-09
  1 502 1.86191953E-09
  1 503 1.60121247E-08
  1 504 1.86043934E-09
  1 505 1.87118414E-09
  1 506 1.60107758E-08
  1 507 1.59535564E-08
  1 508 1.91027315E-09
  1 509 1.87136450E-09
  1 510 7.36584111E-09
  1 511 9.44314082E-09
  1 512 1.25823748E-08
  1 513 1.65878836E-09
  1 514 1.68532311E-08
  1 515 1.97372286E-09
  1 516 1.68089541E-08
  1 517 1.95955562E-09
  1 518 1.97299040E-09
  1 519 1.62764407E-08
  1 520 1.65845420E-09
  1 521 1.65803525E-09
  1 522 1.65836331E-09
  1 523 1.41888369E-08
  1 524 1.82537449E-09
  1 525 1.65865348E-09
  1 526 1.41867052E-08
  1 527 1.65827129E-09
  1 528 1.41884343E-08
  1 529 1.41850874E-08
  1 530 1.82571425E-09
  1 531 1.41873069E-08
  1 532 1.65825481E-09
  1 533 1.66257821E-08
  1 534 1.66502802E-08
  1 535 1.64498794E-08
  1 536 1.99927666E-09
  1 537 1.65837819E-09
  1 538 1.64873008E-08
  1 539 1.41881233E-08
  1 540 1.65843901E-09
  1 541 1.65858997E-09
  1 542 1.41892568E-08
  1 543 1.41863324E-08
  1 544 1.65852163E-09
  1 545 1.65842744E-09
  1 546 1.41871300E-08
  1 547 1.65850033E-09
  1 548 1.41890325E-08
  1 549 1.41882064E-08
  1 550 1.99929155E-09
  1 551 1.59478050E-08
  1 552 1.41864116E-08
  1 553 1.56387265E-08
  1 554 1.82834099E-09
  1 555 1.56379446E-08
  1 556 1.82816045E-09
  1 557 1.82774647E-09
  1 558 1.56380587E-08
  1 559 1.82636598E-09
  1 560 1.56317318E-08
  1 561 1.56431901E-08
  1 562 1.82863400E-09
  1 563 1.56433319E-08
  1 564 1.82889337E-09
  1 565 1.56399570E-08
  1 566 1.82854228E-09
  1 567 1.56419406E-08
  1 568 1.56409872E-08
  1 569 1.82862103E-09
  1 570 1.82615850E-09
  1 571 1.56356033E-08
  1 572 1.82850596E-09
  1 573 1.56360874E-08
  1 574 1.82609778E-09
  1 575 1.56286099E-08
  1 576 1.56192105E-08
  1 577 1.82521532E-09
  1 578 1.56271799E-08
  1 579 1.82585467E-09
  1 580 1.56300832E-08
  1 581 1.56312575E-08
  1 582 1.87713628E-09
  1 583 1.82715529E-09
  1 584 1.56233047E-08
  1 585 1.56474036E-08
  1 586 1.59854955E-08
  1 587 1.61531702E-08
  1 588 1.56456669E-08
  1 589 1.88420443E-09
  1 590 1.56304631E-08
  1 591 1.76548794E-09
  1 592 1.82646081E-09
  1 593 1.82768964E-09
  1 594 1.89520689E-09
  1 595 1.41870455E-08
  1 596 1.89940788E-09
  1 597 1.68255640E-08
  1 598 1.92261864E-09
  1 599 1.67679854E-08
  1 600 1.66880672E-08
  1 601 1.67674809E-08
  1 602 1.67671106E-08
  1 603 1.93290104E-09
  1 604 1.68125366E-08
  1 605 1.67692934E-08
  1 606 1.67675113E-08
  1 607 1.99937945E-09
  1 608 1.99936533E-09
  1 609 1.67691721E-08
  1 610 1.67681387E-08
  1 611 1.95981894E-09
  1 612 1.95989173E-09
  1 613 1.67687180E-08
  1 614 1.95982465E-09
  1 615 1.96272093E-09
  1 616 1.95983886E-09
  1 617 1.92263265E-09
  1 618 1.92269809E-09
  1 619 1.99208608E-09
  1 620 1.64480044E-08
  1 621 1.95959745E-09
  1 622 1.91166757E-09
  1 623 1.64493954E-08
  1 624 1.99936586E-09
  1 625 1.71081166E-08
  1 626 1.99935959E-09
  1 627 1.99936769E-09
  1 628 1.71083926E-08
  1 629 1.71082546E-08
  1 630 1.99937667E-09
  1 631 1.99938098E-09
  1 632 1.71083049E-08
  1 633 1.71082206E-08
  1 634 1.71083014E-08
  1 635 1.95970789E-09
  1 636 1.95987471E-09
  1 637 1.92267042E-09
  1 638 1.99937359E-09
  1 639 1.68968835E-08
  1 640 1.97449067E-09
  1 641 1.71082367E-08
  1 642 1.99934343E-09
  1 643 1.99936639E-09
  1 644 1.68933632E-08
  1 645 1.97602623E-09
  1 646 1.71084367E-08
  1 647 1.65910338E-09
  1 648 1.68461630E-09
  1 649 1.68949188E-08
  1 650 1.65736298E-08
  1 651 1.68955578E-08
  1 652 1.97434310E-09
  1 653 1.97457526E-09
  1 654 1.68963761E-08
  1 655 1.97426185E-09
  1 656 1.68926595E-08
  1 657 1.71081987E-08
  1 658 1.97439860E-09
  1 659 1.71082387E-08
  1 660 1.99937794E-09
  1 661 1.71087112E-08
  1 662 1.99939341E-09
  1 663 1.99939994E-09
  1 664 1.71081113E-08
  1 665 1.71084598E-08
  1 666 1.71084796E-08
  1 667 1.71088352E-08
  1 668 1.99941549E-09
  1 669 1.99943090E-09
  1 670 1.71090343E-08
  1 671 1.68802703E-08
  1 672 1.99946302E-09
  1 673 1.99948579E-09
  1 674 1.71085576E-08
  1 675 1.95975737E-09
  1 676 1.71083739E-08
  1 677 1.99940753E-09
  1 678 1.71081717E-08
  1 679 1.99934100E-09
  1 680 1.41669987E-08
  1 681 1.99906739E-09
  1 682 1.64723279E-08
  1 683 1.64507552E-08
  1 684 1.69931986E-08
  1 685 1.71183292E-08
  1 686 1.56396773E-08
  1 687 9.37354047E-09
  1 688 1.62717660E-08
  1 689 1.77242234E-08
  1 690 1.69490343E-08
  1 691 1.29359644E-08
  1 692 1.31898601E-08
  1 693 1.99018311E-08
  1 694 1.34759058E-08
  1 695 1.73984916E-08
  1 696 1.01604920E-08
  1 697 1.82813761E-08
  1 698 1.37562711E-08
  1 699 1.91997604E-08
  1 700 1.01304895E-08
  1 701 1.95972139E-08
  1 702 1.88005428E-08
  1 703 1.19691073E-08
  1 704 1.95307459E-08
  1 705 2.03472448E-08
  1 706 1.80324261E-08
  1 707 1.95220335E-08
  1 708 1.33071968E-08
  1 709 1.95996900E-08
  1 710 1.39216033E-08
  1 711 1.04772963E-08
  1 712 1.95512961E-08
  1 713 1.36867729E-08
  1 714 1.36342342E-08
  1 715 2.04671593E-08
  1 716 1.98408463E-08
  1 717 1.10272450E-08
  1 718 2.05915450E-08
  1 719 2.04694984E-08
  1 720 1.18359986E-08
  1 721 9.87949750E-09
  1 722 2.04735457E-08
  1 723 1.28646316E-08
  1 724 2.07048181E-08
  1 725 1.26601969E-08
  1 726 1.95484986E-08
  1 727 1.63584458E-08
  1 728 2.06363564E-08
  1 729 1.55289410E-08
  1 730 1.25747112E-08
  1 731 1.26831972E-08
  1 732 1.72145233E-08
  1 733 1.54523067E-08
  1 734 1.27116447E-08
  1 735 9.05009410E-09
  1 736 1.57299552E-08
  1 737 1.56634363E-08
  1 738 1.57848940E-08
  1 739 1.24232648E-08
  1 740 1.49443397E-08
  1 741 1.52331318E-08
  1 742 1.52598271E-08
  1 743 1.81499221E-08
  1 744 1.51192578E-08
  1 745 1.58087536E-08
  1 746 1.76909435E-08
  1 747 1.90129920E-08
  1 748 1.02935607E-08
  1 749 2.08069312E-08
  1 750 1.06093915E-08
  1 751 1.23087376E-08
  1 752 1.14798277E-08
  1 753 1.86011861E-08
  1 754 2.01358335E-08
  1 755 1.20732827E-08
  1 756 2.06065175E-08
  1 757 1.80152691E-08
  1 758 1.82536973E-08
  1 759 1.82132583E-08
  1 760 1.80804158E-08
  1 761 1.84225902E-08
  1 762 1.83267147E-08
  1 763 1.83393185E-08
  1 764 1.81238314E-08
  1 765 1.92143139E-08
  1 766 1.80216233E-08
  1 767 1.20392730E-08
  1 768 2.10660897E-08
  1 769 1.99719817E-08
  1 770 1.80902078E-08
  1 771 1.33287741E-08
  1 772 1.33167149E-08
  1 773 1.58279774E-08
  1 774 1.60636625E-08
  1 775 1.65768686E-08
  1 776 1.65751486E-08
  1 777 1.93143832E-09
  1 778 1.55384522E-08
  1 779 1.66025614E-08
  1 780 1.93699305E-09
  1 781 1.93681871E-09
  1 782 1.65774578E-08
  1 783 1.65781797E-08
  1 784 1.65850338E-08
  1 785 1.93897831E-09
  1 786 1.65836662E-08
  1 787 1.65949116E-08
  1 788 1.93744721E-09
  1 789 1.66117825E-08
  1 790 1.93679694E-09
  1 791 1.94085857E-09
  1 792 1.66017048E-08
  1 793 1.66068161E-08
  1 794 1.65821368E-08
  1 795 1.94167222E-09
  1 796 1.94086386E-09
  1 797 1.65993866E-08
  1 798 1.94098933E-09
  1 799 1.65934434E-08
  1 800 1.65865692E-08
  1 801 1.93974643E-09
  1 802 1.93956614E-09
  1 803 1.65950282E-08
  1 804 1.65963618E-08
  1 805 1.94038617E-09
  1 806 1.94022079E-09
  1 807 1.65979015E-08
  1 808 1.93987383E-09
  1 809 1.94075064E-09
  1 810 1.66095694E-08
  1 811 1.63066669E-08
  1 812 1.83598386E-09
  1 813 1.86019555E-08
  1 814 1.09325108E-08
  1 815 1.17360595E-08
  1 816 1.17321837E-08
  1 817 1.37317273E-09
  1 818 1.37242207E-09
  1 819 1.43776025E-08
  1 820 1.17462340E-08
  1 821 1.16946573E-08
  1 822 1.16883319E-08
  1 823 1.36780289E-09
  1 824 1.17936031E-09
  1 825 1.17248997E-08
  1 826 1.17038419E-08
  1 827 1.36587473E-09
  1 828 1.37081298E-09
  1 829 1.17429245E-08
  1 830 1.36900656E-09
  1 831 1.37161954E-09
  1 832 1.48296867E-08
  1 833 1.48959813E-08
  1 834 1.93862428E-09
  1 835 1.74219842E-09
  1 836 1.93820203E-09
  1 837 1.65803671E-08
  1 838 1.74175716E-09
  1 839 1.48991332E-08
  1 840 1.48949185E-08
  1 841 1.17579570E-08
  1 842 1.17492656E-08
  1 843 1.37612142E-09
  1 844 1.36567527E-09
  1 845 1.74151274E-09
  1 846 1.48891463E-08
  1 847 1.74063530E-09
  1 848 1.74124443E-09
  1 849 1.48935026E-08
  1 850 1.37413484E-09
  1 851 1.72608322E-09
  1 852 1.48891540E-08
  1 853 1.93879010E-09
  1 854 1.77958398E-08
  1 855 1.38348002E-08
  1 856 1.36781309E-08
  1 857 1.83530016E-09
  1 858 1.40089699E-08
  1 859 1.77933379E-08
  1 860 1.79810789E-08
  1 861 1.79157113E-08
  1 862 1.81450859E-08
  1 863 1.76237554E-08
  1 864 1.78526046E-08
  1 865 1.76383240E-08
  1 866 1.77346688E-08
  1 867 1.48709476E-08
  1 868 1.75121347E-08
  1 869 1.75710806E-08
  1 870 1.76569760E-08
  1 871 1.76708832E-08
  1 872 1.74028415E-08
  1 873 1.77822296E-08
  1 874 1.75505184E-08
  1 875 1.78250272E-08
  1 876 1.78330269E-08
  1 877 1.44061451E-08
  1 878 1.44990729E-08
  1 879 1.44379097E-08
  1 880 1.43455841E-08
  1 881 1.46373759E-08
  1 882 1.43861530E-08
  1 883 1.79388961E-08
  1 884 1.45378116E-08
  1 885 1.48877889E-08
  1 886 1.46867105E-08
  1 887 1.49401504E-08
  1 888 1.49444737E-08
  1 889 1.47930098E-08
  1 890 1.49687047E-08
  1 891 1.49352524E-08
  1 892 1.48762923E-08
  1 893 1.48015946E-08
  1 894 1.50063030E-08
  1 895 1.49019394E-08
  1 896 1.76969078E-08
  1 897 1.43141831E-08
  1 898 1.48967382E-08
  1 899 1.50217223E-08
  1 900 1.49827899E-08
  1 901 1.50195556E-08
  1 902 1.48860064E-08
  1 903 1.50620889E-08
  1 904 1.49943511E-08
  1 905 1.49226860E-08
  1 906 1.50370704E-08
  1 907 1.50343710E-08
  1 908 1.50503697E-08
  1 909 1.50399625E-08
  1 910 1.51054422E-08
  1 911 1.50398084E-08
  1 912 1.50122493E-08
  1 913 1.49891731E-08
  1 914 1.51309543E-08
  1 915 1.49447676E-08
  1 916 1.50876074E-08
  1 917 1.50627808E-08
  1 918 1.49742388E-08
  1 919 1.50724638E-08
  1 920 1.50033657E-08
  1 921 1.50947959E-08
  1 922 1.50822694E-08
  1 923 1.50362680E-08
  1 924 1.51134006E-08
  1 925 1.50329989E-08
  1 926 1.50804557E-08
  1 927 1.51770512E-08
  1 928 1.51367955E-08
  1 929 1.52079388E-08
  1 930 1.50798641E-08
  1 931 1.52101954E-08
  1 932 1.51819386E-08
  1 933 1.51316997E-08
  1 934 1.52620811E-08
  1 935 1.51129115E-08
  1 936 1.51547481E-08
  1 937 1.51792762E-08
  1 938 1.50404341E-08
  1 939 1.49182602E-08
  1 940 1.52766043E-08
  1 941 1.45241524E-08
  1 942 1.50261757E-08
  1 943 1.41806650E-08
  1 944 1.41711426E-08
  1 945 1.41376742E-08
  1 946 1.41081073E-08
  1 947 1.41907905E-08
  1 948 1.41599162E-08
  1 949 1.40778401E-08
  1 950 1.42486167E-08
  1 951 1.42950346E-08
  1 952 1.42536931E-08
  1 953 1.42981117E-08
  1 954 1.42583963E-08
  1 955 1.43411307E-08
  1 956 1.42508391E-08
  1 957 1.42550098E-08
  1 958 1.43016062E-08
  1 959 1.43023458E-08
  1 960 1.41401188E-08
  1 961 1.41784148E-08
  1 962 1.41315387E-08
  1 963 1.42812985E-08
  1 964 1.41379051E-08
  1 965 1.45171264E-08
  1 966 1.42153371E-08
  1 967 1.40989844E-08
  1 968 1.42265203E-08
  1 969 1.43374926E-08
  1 970 1.42831612E-08
  1 971 1.43243963E-08
  1 972 1.43729467E-08
  1 973 1.43561305E-08
  1 974 1.43371061E-08
  1 975 1.43779082E-08
  1 976 1.43975132E-08
  1 977 1.42770600E-08
  1 978 1.44515102E-08
  1 979 1.43163144E-08
  1 980 1.40711411E-08
  1 981 1.41102388E-08
  1 982 1.44521595E-08
  1 983 1.45776487E-08
  1 984 1.44957604E-08
  1 985 1.45761646E-08
  1 986 1.45442942E-08
  1 987 1.44098000E-08
  1 988 1.46246936E-08
  1 989 1.43467048E-08
  1 990 1.44983069E-08
  1 991 1.48201769E-08
  1 992 1.47763310E-08
  1 993 1.48248071E-08
  1 994 1.48338170E-08
  1 995 1.46630107E-08
  1 996 1.47079755E-08
  1 997 1.46131905E-08
  1 998 1.47398583E-08
  1 999 1.46519295E-08
  1 1000 1.48148157E-08
  1 1001 1.47053194E-08
  1 1002 1.44103845E-08
  1 1003 1.46209966E-08
  1 1004 1.44852444E-08
  1 1005 1.45729032E-08
  1 1006 1.45016633E-08
  1 1007 1.46413262E-08
  1 1008 1.46662546E-08
  1 1009 1.43763725E-08
  1 1010 1.46697963E-08
  1 1011 1.48457186E-08
  1 1012 1.47263791E-08
  1 1013 1.47849167E-08
  1 1014 1.48677574E-08
  1 1015 1.47081422E-08
  1 1016 1.47368054E-08
  1 1017 1.48737373E-08
  1 1018 1.47222797E-08
  1 1019 1.46948711E-08
  1 1020 1.47353688E-08
  1 1021 1.47137916E-08
  1 1022 1.45446454E-08
  1 1023 1.44932998E-08
  1 1024 1.49781133E-08
  1 1025 1.41982704E-08
  1 1026 1.42287087E-08
  1 1027 1.39053438E-08
  1 1028 1.50302376E-08
  1 1029 1.94145565E-09
  1 1030 1.48457012E-08
  1 1031 1.97685908E-09
  1 1032 1.69086937E-08
  1 1033 1.69108371E-08
  1 1034 1.69125853E-08
  1 1035 1.97666511E-09
  1 1036 1.97691583E-09
  1 1037 1.69102423E-08
  1 1038 1.97689424E-09
  1 1039 1.66068847E-08
  1 1040 1.66101915E-08
  1 1041 1.83760092E-09
  1 1042 1.97689086E-09
  1 1043 1.94802645E-09
  1 1044 1.94201048E-09
  1 1045 1.97710331E-09
  1 1046 1.83776401E-09
  1 1047 1.69124704E-08
  1 1048 1.63074251E-08
  1 1049 1.66326291E-08
  1 1050 1.94396554E-09
  1 1051 1.66304900E-08
  1 1052 1.94431950E-09
  1 1053 1.94419696E-09
  1 1054 1.66333979E-08
  1 1055 1.94444651E-09
  1 1056 1.66260391E-08
  1 1057 1.66270771E-08
  1 1058 1.94261352E-09
  1 1059 1.94367023E-09
  1 1060 1.66321458E-08
  1 1061 1.66328431E-08
  1 1062 1.94354723E-09
  1 1063 1.94334854E-09
  1 1064 1.66301124E-08
  1 1065 1.94320973E-09
  1 1066 1.66291524E-08
  1 1067 1.62970577E-08
  1 1068 1.94362648E-09
  1 1069 1.94424454E-09
  1 1070 1.83798881E-09
  1 1071 1.57130867E-08
  1 1072 1.83572180E-09
  1 1073 1.56992837E-08
  1 1074 1.83652668E-09
  1 1075 1.83677163E-09
  1 1076 1.57094853E-08
  1 1077 1.83639095E-09
  1 1078 1.57229427E-08
  1 1079 1.57029833E-08
  1 1080 1.74032533E-09
  1 1081 1.83554443E-09
  1 1082 1.57080308E-08
  1 1083 1.57100195E-08
  1 1084 1.83457040E-09
  1 1085 1.83403487E-09
  1 1086 1.57057875E-08
  1 1087 1.83388615E-09
  1 1088 1.56967913E-08
  1 1089 1.57174800E-08
  1 1090 1.83657976E-09
  1 1091 1.57210491E-08
  1 1092 1.57275182E-08
  1 1093 1.57279040E-08
  1 1094 1.83878218E-09
  1 1095 1.83887654E-09
  1 1096 1.57305950E-08
  1 1097 1.83835607E-09
  1 1098 1.57138805E-08
  1 1099 1.57334906E-08
  1 1100 1.83971546E-09
  1 1101 1.83914851E-09
  1 1102 1.57320239E-08
  1 1103 1.56950096E-08
  1 1104 1.83936916E-09
  1 1105 1.83907052E-09
  1 1106 1.57156299E-08
  1 1107 1.83914014E-09
  1 1108 1.57278019E-08
  1 1109 1.83850077E-09
  1 1110 1.57260987E-08
  1 1111 1.83700485E-09
  1 1112 1.44236956E-08
  1 1113 1.66330880E-08
  1 1114 1.56536424E-08
  1 1115 1.66309344E-08
  1 1116 1.94473181E-09
  1 1117 1.66316608E-08
  1 1118 1.93923040E-09
  1 1119 1.94413473E-09
  1 1120 1.66291688E-08
  1 1121 1.94426013E-09
  1 1122 1.66308814E-08
  1 1123 1.66341638E-08
  1 1124 1.94455772E-09
  1 1125 1.66253617E-08
  1 1126 1.94378105E-09
  1 1127 1.94322757E-09
  1 1128 1.66272848E-08
  1 1129 1.66337949E-08
  1 1130 1.66301739E-08
  1 1131 1.94397202E-09
  1 1132 1.94446655E-09
  1 1133 1.90575267E-09
  1 1134 1.94367254E-09
  1 1135 1.57584760E-08
  1 1136 1.90502774E-09
  1 1137 1.48937822E-08
  1 1138 1.57630918E-08
  1 1139 1.61883474E-08
  1 1140 1.63220437E-08
  1 1141 1.57139077E-08
  1 1142 1.57217877E-08
  1 1143 1.54594180E-08
  1 1144 1.57267097E-08
  1 1145 1.50651142E-08
  1 1146 1.51725938E-08
  1 1147 1.51954643E-08
  1 1148 1.43901539E-08
  1 1149 1.51863466E-08
  1 1150 1.47455747E-08
  1 1151 1.65409686E-08
  1 1152 1.53389997E-08
  1 1153 1.94399004E-09
  1 1154 1.52905147E-08
  1 1155 1.53090103E-08
  1 1156 1.53604700E-08
  1 1157 1.51936572E-08
  1 1158 1.45594370E-08
  1 1159 1.45569377E-08
  1 1160 1.55882280E-08
  1 1161 1.53153168E-08
  1 1162 1.53382285E-08
  1 1163 1.52820167E-08
  1 1164 1.53450553E-08
  1 1165 1.52793863E-08
  1 1166 1.52706549E-08
  1 1167 1.52298256E-08
  1 1168 1.53010123E-08
  1 1169 1.52188127E-08
  1 1170 1.52984472E-08
  1 1171 1.52689361E-08
  1 1172 1.52064750E-08
  1 1173 1.44538450E-08
  1 1174 1.53354387E-08
  1 1175 1.45211218E-08
  1 1176 1.45108607E-08
  1 1177 1.46363374E-08
  1 1178 1.45951432E-08
  1 1179 1.45459442E-08
  1 1180 1.46457877E-08
  1 1181 1.46242430E-08
  1 1182 1.44122598E-08
  1 1183 1.44916049E-08
  1 1184 1.45399782E-08
  1 1185 1.44471038E-08
  1 1186 1.43249540E-08
  1 1187 1.44870635E-08
  1 1188 1.44357540E-08
  1 1189 1.40334533E-08
  1 1190 1.43483211E-08
  1 1191 1.43510845E-08
  1 1192 1.41052316E-08
  1 1193 1.40319419E-08
  1 1194 1.43990129E-08
  1 1195 1.47807483E-08
  1 1196 1.42112576E-08
  1 1197 1.39715816E-08
  1 1198 1.66332721E-08
  1 1199 1.69139456E-08
  1 1200 1.52879010E-08
  1 1201 1.43921677E-08
  1 1202 1.44330846E-08
  1 1203 1.45168618E-08
  1 1204 1.45375854E-08
  1 1205 1.45767774E-08
  1 1206 1.44809126E-08
  1 1207 1.43483676E-08
  1 1208 1.45667609E-08
  1 1209 1.45379798E-08
  1 1210 1.43469403E-08
  1 1211 1.46519426E-08
  1 1212 1.46690271E-08
  1 1213 1.46927037E-08
  1 1214 1.46048169E-08
  1 1215 1.45080113E-08
  1 1216 1.45890422E-08
  1 1217 1.45829968E-08
  1 1218 1.45096931E-08
  1 1219 1.47852209E-08
  1 1220 1.48471718E-08
  1 1221 1.49810326E-08
  1 1222 1.49343398E-08
  1 1223 1.49897558E-08
  1 1224 1.48788261E-08
  1 1225 1.45912823E-08
  1 1226 1.49548918E-08
  1 1227 1.47078362E-08
  1 1228 1.46097700E-08
  1 1229 1.46496778E-08
  1 1230 1.46551756E-08
  1 1231 1.46895286E-08
  1 1232 1.47844284E-08
  1 1233 1.47542622E-08
  1 1234 1.46970966E-08
  1 1235 1.46668715E-08
  1 1236 1.47087823E-08
  1 1237 1.50258392E-08
  1 1238 1.45930230E-08
  1 1239 1.47450003E-08
  1 1240 1.47871936E-08
  1 1241 1.43308190E-08
  1 1242 1.43257291E-08
  1 1243 1.44294270E-08
  1 1244 1.42610481E-08
  1 1245 1.43828420E-08
  1 1246 1.44056098E-08
  1 1247 1.41625726E-08
  1 1248 1.44963744E-08
  1 1249 1.46908087E-08
  1 1250 1.44238919E-08
  1 1251 1.45019449E-08
  1 1252 1.45517641E-08
  1 1253 1.46243929E-08
  1 1254 1.44082447E-08
  1 1255 1.45778975E-08
  1 1256 1.45775329E-08
  1 1257 1.44789541E-08
  1 1258 1.47717846E-08
  1 1259 1.45391957E-08
  1 1260 1.42593689E-08
  1 1261 1.44222182E-08
  1 1262 1.44846409E-08
  1 1263 1.47542031E-08
  1 1264 1.46406572E-08
  1 1265 1.47213314E-08
  1 1266 1.48306770E-08
  1 1267 1.47433399E-08
  1 1268 1.47018523E-08
  1 1269 1.44903721E-08
  1 1270 1.44348149E-08
  1 1271 1.45255152E-08
  1 1272 1.44924723E-08
  1 1273 1.45646571E-08
  1 1274 1.46391742E-08
  1 1275 1.47300582E-08
  1 1276 1.44925286E-08
  1 1277 1.44370572E-08
  1 1278 1.48284827E-08
  1 1279 1.46228295E-08
  1 1280 1.43902477E-08
  1 1281 1.42441796E-08
  1 1282 1.46683466E-08
  1 1283 1.46729446E-08
  1 1284 1.42963049E-08
  1 1285 1.52942091E-08
  1 1286 1.52682031E-08
  1 1287 1.52707312E-08