# File generated by Flopy version 3.9.1 on 02/12/2026 at 09:25:15.
BEGIN options
  BUDGET  FILEOUT  triangle_caseD.cbc
  HEAD  FILEOUT  triangle_caseD.hds
END options

BEGIN period  1
  SAVE  head  last
  SAVE  budget  last
  PRINT  budget  last
END period  1

