# File generated by Flopy version 3.9.1 on 04/08/2026 at 09:09:29.
BEGIN options
END options

BEGIN griddata
  strt
    INTERNAL  FACTOR  1.0
        -6.50000000      -0.50000000      -6.50000000      -6.50000000      -6.50000000      -6.50000000      -9.50000000      -6.50000000      -8.50000000      -6.50000000      -6.50000000      -6.50000000      -6.50000000      -6.50000000      -6.50000000      -6.50000000       0.50000000       0.50000000       0.50000000       0.50000000
         0.50000000       0.50000000       0.50000000       0.50000000       0.50000000       0.50000000       0.50000000      -7.50000000      -7.50000000      -7.50000000      -7.50000000      -0.50000000       2.49929677       0.50000000      -0.50000000      -9.50000000      -2.50000000      -2.50000000      -2.50000000      -9.50000000
        -6.50000000       1.61008362       1.66959206       1.58623841       1.65491678       1.73428104       1.78601184       1.81155032       1.82786564       1.80969077       1.82623076       1.78228323       1.80819591       1.82495074       1.80708903       1.82404658       1.72662349       1.78022607       1.81483259       1.78006422
         1.81539218       1.84423192       1.86065078       1.84279855       1.85939797       1.88484259       1.84170925       1.85847781       1.84098295       1.85790729       1.87526614       1.89208655       1.87483207       1.89177226       1.91821222       1.95192824       1.91729011       1.95139556       1.84063842       1.85770311
         1.84069416       1.85788157       1.87474887       1.89179351       1.87503088       1.89216291       1.85024384       1.88478534       1.91759811       1.95198439       1.91921908       1.95375894       1.50000000       1.50000000       1.50000000       1.50000000       1.50000000       1.50000000       1.50000000       1.50000000
         1.50000000       1.50000000       1.50000000       1.50000000       1.50000000       1.50000000       1.50000000       1.50000000       1.50000000       1.50000000       1.50000000       1.50000000       1.50000000       1.50000000       1.50000000       1.50000000       1.50000000       1.50000000       1.50000000       1.50000000
         1.50000000       1.50000000       1.50000000       1.50000000       1.50000000       1.50000000       1.50000000       1.50000000       1.50000000       1.50000000       1.50000000       1.50000000       1.50000000      -0.50000000      -0.50000000      -0.50000000      -0.50000000      -8.50000000      -6.50000000      -6.50000000
        -6.50000000       0.50000000      -9.50000000      -2.50000000      -2.50000000      -2.50000000       1.87822132       1.87998540       1.85547761       1.80246264      -0.50000000       0.50000000      -0.50000000       1.46533009       1.57108376       1.63057299       1.66929821       1.63003813       1.67072470       1.57049634
         1.63341027       1.66375116       1.68443822       1.66712188       1.68808582       1.64144454       1.67160165       1.69276917       1.67726073       1.69854352       1.70768949       1.74531205       1.71051923       1.74906300       1.80198617       1.70475195       1.72466120       1.70859960       1.72864226       1.75569444
         1.71340994       1.73351506       1.71922564       1.73931182       1.76543959       1.79312766       1.82917481       1.80260484       1.82691387       1.84447774       1.83209080       1.84948079       1.87250239       1.94148567       1.86418459       1.89852787       1.86179022       1.87890393       1.86661525       1.88355021
         1.90645250       1.93256599       1.96663424       1.93993871       1.97349785       1.99161549       2.02697496       1.99575242       2.03099069       2.06303848       2.09996071       2.06697925       2.10388680       1.99093952       2.00830926       1.99390915       2.01119347       2.02583893       2.04355591       2.02864609
         2.04629515       1.99717054       2.01435225       2.00072018       2.01778220       2.03171215       2.04927902       2.03503389       2.05250446       2.07183572       2.10864011       2.06707883       2.08513480       2.07022029       2.08820491       2.10346731       2.12209388       2.10647898       2.12506026       2.13785867
         2.17680902       2.14184093       2.18092599       2.21684581       2.25795867       2.22118106       2.26259836       2.14657570       2.18573256       2.15205518       2.19122244       2.21463797       2.23514073       2.21726058       2.23781078       2.25595012       2.27705909       2.25868008       2.27986137       2.22004377
         2.24063567       2.22298617       2.24361419       2.26155969       2.28280860       2.26458789       2.28589988       0.50000000       0.50000000       0.50000000       0.50000000       0.50000000       0.50000000       0.50000000       0.50000000       0.50000000       0.50000000       0.50000000       0.50000000       0.50000000
         0.50000000       0.50000000       0.50000000       0.50000000       0.50000000       0.50000000       0.50000000       0.50000000       0.50000000       0.50000000       0.50000000       0.50000000       2.50000000       2.50000000       2.50000000       2.50000000       2.73258501       2.87930051       2.97435381       3.00302970
         1.50000000      -9.50000000      -9.50000000      -0.50000000       1.49731768       1.60474098       1.72614830       1.86791671       1.90086375       1.91019149       1.89510443       1.85423699       1.77272827       1.63217092       1.53482060       1.69325093       1.59600061       1.45183669       1.42057751       1.50016765
         1.46153347       1.54422008       1.50122689       1.43905766       1.43337329       1.47372686       1.46592405       1.43358562       1.49865456       1.46964843       1.50000000       1.59320091       1.65490952       1.68416348       1.70545738       1.69236508       1.71354976       1.67448546       1.71767295       1.60747096
         1.65577147       1.64718983       1.69217167       1.68244085       1.70422809       1.69750339       1.71857985       1.72509311       1.74507964       1.73871608       1.75797582       1.71430277       1.73442828       1.73275560       1.75168675       1.75363211       1.77199342       1.76975606       1.78705157       1.72608227
         1.74605780       1.73400611       1.75376945       1.77845642       1.75762649       1.79478978       1.81481921       1.83786870       1.85503494       1.84424227       1.86113362       1.82975232       1.86311769       1.77936163       1.81433406       1.80485037       1.83680543       1.87228436       1.87194684       1.88866329
         1.87777765       1.89423543       1.91604581       1.89544783       1.92724489       1.94875306       1.98161930       1.95894953       1.98040442       1.99664132       1.98546808       2.00148481       1.93200395       1.97043567       1.99081678       2.00659561       1.99643718       2.01196162       1.98308806       2.01287152
         1.50000000       1.50000000       1.50000000       1.50000000       1.50000000       1.50000000       1.50000000       1.50000000       1.50000000       1.50000000       1.50000000       1.50000000       1.50000000       1.50000000       1.50000000       1.50000000       1.50000000       1.50000000       1.50000000       1.50000000
         1.50000000       1.50000000       1.50000000       1.50000000       1.50000000       2.15826357       2.19738278       2.16517723       2.20419436       2.23798436       2.28006072       2.24481756       2.28703675       2.19596356       2.27712557       2.32355055       2.36833784       2.33078686       2.37594654       2.40076858
         2.42390411       2.40462142       2.42789031       2.44724464       2.47075622       2.45137554       2.47504249       2.40860022       2.43200081       2.41270396       2.43623473       2.45562942       2.47945072       2.46000550       2.48398028       2.36528003       2.43091847       2.47887334       2.43998322       2.48849535
         2.50851663       2.55627376       2.51783391       2.56632087       2.63325736       2.55746314       2.65672776       2.78565358       2.94421272       3.04586714       3.07289331       3.01586686      -6.50000000      -6.50000000      -0.50000000      -9.50000000      -9.50000000      -2.50000000       1.34300410       1.40352358
         1.33559611       1.39777293       1.46376795       1.52278368       1.45980377       1.52071305       1.57961430       1.63335622       1.57951773       1.63528861       1.71191777       1.80994020       1.71576843       1.81533467       1.86697503       1.89243841       1.86482051       1.87983985       1.84505494       1.88378691
         1.89338857       1.90548277       1.89789613       1.91056204       1.91205995       1.92598835       1.92392955       1.94033993       1.93439623       1.93743129       1.94506729       1.94903262       1.95336896       1.95810429       1.95175889       1.95327726       1.96166607       1.96409937       1.93516780       1.92755563
         1.95952503       1.95692062       1.92689247       1.89296363       1.78807421       1.71913047       1.90167593       1.88563763      -0.50000000      -0.50000000      -0.50000000      -0.50000000      -0.50000000      -0.50000000      -0.50000000      -0.50000000      -0.50000000      -0.50000000      -0.50000000      -0.50000000
        -0.50000000      -0.50000000      -0.50000000      -0.50000000      -0.50000000      -0.50000000      -0.50000000      -0.50000000      -0.50000000      -0.50000000      -0.50000000      -0.50000000      -0.50000000      -0.50000000      -0.50000000      -0.50000000       1.60276421       1.61380614       1.65676220       1.69726767
         1.72843420       1.84115609       1.79376144       1.78314860       1.79293306       1.82572625       1.83144739       1.88980358       1.86748049       1.86927424       1.90717622       1.90543641       1.69832245       1.73669114       1.75884465       1.78752316       1.75272368       1.77022579       1.77401269       1.78987326
         1.78696939       1.80304340       1.80512112       1.81983736       1.81445441       1.83998077       1.80288210       1.81291131       1.83771439       1.84444573       1.82297330       1.83304533       1.85157629       1.85905439       1.87198013       1.87551999       1.90490633       1.90552129       1.87981186       1.88477622
         1.90719231       1.90982077       1.84312045       1.85320156       1.86683928       1.87489923       1.86329764       1.87342148       1.88321005       1.89175408       1.89033976       1.89643730       1.91330814       1.91756189       1.90301270       1.91001894       1.92249881       1.92804652       1.83351897       1.86173456
         1.86452437       1.88848906       1.88894257       1.91564341       1.91223886       1.93610169       1.89683176       1.91632846       1.92934439       1.94448471       1.92504782       1.93571187       1.93772315       1.94757783       1.94653975       1.95755515       1.95767318       1.96802363       1.95045561       1.95951405
         1.96317573       1.97146122       1.96888736       1.97858118       1.98013135       1.98918376       1.96410649       1.99675685       2.02525076       2.01127254       2.02805962       2.04212129       2.03496408       2.04870818       1.97925936       2.00221379       1.99860904       2.01956139       2.02645469       2.04201787
         2.05544078       2.04920182       2.06230195       2.04212143       2.05649701       2.06927477       2.06388495       2.07634262       2.05494156       2.08606186       2.05653977       2.07134171       2.06283758       2.07737725       2.09714493       2.14079602       2.06927769       2.08355189       2.07584475       2.08985180
         2.10878995       2.08252353       2.09626330       2.08929909       2.10277287       2.12090271       2.16189691       2.21332747       2.29417319       2.23273174       2.28723020       2.32978372       2.29714448       2.32633898       2.34821366       2.33140262       2.35330315       2.38310914       2.47897953       2.37453578
         2.42133197       2.37065717       2.39364960       2.37579019       2.39884341       2.43175960       2.50037672       2.64346611       2.84737827       3.02010601       3.13254155       3.16476966       2.50000000       2.94193162      -7.50000000      -6.50000000      -6.50000000      -6.50000000      -6.50000000      -1.50000000
        -1.50000000      -2.50000000      -2.50000000      -2.50000000      -2.50000000      -2.50000000       0.50000000       0.50000000       0.50000000       0.50000000       0.50000000       0.50000000       0.50000000       0.50000000       0.50000000       0.50000000       0.50000000       0.50000000       0.50000000       0.50000000
         0.50000000       0.50000000       0.50000000       0.50000000       0.50000000       0.50000000       0.50000000       0.50000000       0.50000000       0.50000000       0.50000000       1.44084401       1.47231940       1.43841099       1.47031145       1.50347469       1.53418401       1.50190831       1.53307429       1.42846167
         1.44461675       1.42714999       1.44340296       1.46822453       1.42582555       1.44217411       1.42448925       1.44093099       1.46606301       1.49272677       1.50859147       1.49182080       1.50779260       1.52434352       1.53996715       1.52365386       1.53938873       1.49089335       1.50697027       1.48994486
         1.50612482       1.52293886       1.53878318       1.52219874       1.53815060       1.56432383       1.59377508       1.56368443       1.59361818       1.62242496       1.65016870       1.61551497       1.62980842       1.61558804       1.63000524       1.64387073       1.65768989       1.64419259       1.65813801       1.55544682
         1.57076731       1.55498159       1.57041712       1.58591377       1.60087180       1.58568041       1.60075696       1.55448753       1.57003651       1.55396463       1.56962535       1.58541512       1.60060879       1.58511766       1.60042693       1.61562748       1.63016746       1.61563278       1.63029445       1.64447896
         1.65854988       1.64472913       1.65892465       1.61560345       1.63038560       1.61553902       1.63044035       1.64494235       1.65926149       1.64511797       1.65955960       1.70588869       1.73055624       1.70720892       1.73240754       1.80875125       1.82932925       1.81096757       1.83209475       1.70152851
         1.71462463       1.70202339       1.71525013       1.73412473       1.70248319       1.71583983       1.70290698       1.71639269       1.73569770       1.82526310      -0.50000000      -0.50000000      -0.50000000      -0.50000000      -0.50000000      -0.50000000      -0.50000000      -0.50000000      -0.50000000      -0.50000000
        -0.50000000      -0.50000000      -0.50000000      -0.50000000      -0.50000000      -0.50000000      -0.50000000      -0.50000000      -0.50000000      -0.50000000      -0.50000000      -0.50000000      -0.50000000      -0.50000000      -0.50000000      -0.50000000      -0.50000000      -0.50000000      -0.50000000      -0.50000000
        -0.50000000      -0.50000000      -0.50000000      -0.50000000      -0.50000000      -0.50000000      -0.50000000      -0.50000000      -0.50000000      -0.50000000      -0.50000000      -0.50000000      -0.50000000      -0.50000000      -0.50000000      -0.50000000      -0.50000000      -0.50000000      -0.50000000      -0.50000000
         1.96172007       1.96372929       1.96610500       1.97133495       1.97078293       1.97334299       1.97579730       1.97848298       1.98025466       1.98314577       1.96820287       1.97002978       1.97309381       1.97514285       1.97500943       1.98090726       1.98307864       1.98578345       1.98817692       1.98500589
         1.98669807       1.99033567       1.99226956       1.98164567       1.98470123       1.98779752       1.98913130       1.99243221       1.98987421       1.99756553       1.99064816       1.99326296       1.99549494       1.99832992       1.99565213       1.99782621       2.00094795       2.00336025       2.00031756       2.00337118
         2.00511000       2.00838037       2.01024355       1.97737986       1.97882666       1.99179553       1.99416740       1.98693332       2.00366734       2.00713658       2.01541660       2.01994981       2.00999072       2.01235473       2.01960408       2.02135335       2.02637907       2.02842182       2.02300855       2.02458926
         2.03038200       2.03227950       1.98688883       1.99601693       2.01437887       2.01625016       2.03097717       2.03433632       2.03870715       1.50000000       1.50000000       1.50000000       1.50000000       1.50000000       1.50000000       1.50000000       2.00688708       2.03409441       2.06081060       2.07784085
         2.08082081       2.08900357       2.09482354       2.10330562       2.09838176       2.10896220       2.11297369       2.12385954       2.09931110       2.12290131       2.13488138       2.16152106       0.50000000       0.50000000       0.50000000       0.50000000       2.03756471       1.97211198       1.95761434       2.03359891
         2.01360773       2.11090205       2.07956961       1.93584330       1.93392819       1.96430935       1.96034319       1.94542970       1.99856054       1.98932570       1.94696236       1.95243116       1.98555861       1.98645480       2.04757366       2.03253839       1.96105578       1.97225184       1.99118314       1.99906392
         1.97581966       1.98336453       1.98833061       1.99517482       1.99135780       1.99979021       2.00252390       2.01036302       2.00961082       2.02251506       2.03419036       2.04859320       2.00865831       2.01796360       2.01868399       2.02748422       2.02771167       2.03791148       2.03676583       2.04653480
         2.02866819       2.03698442       2.03858489       2.04644059       2.04581698       2.05516953       2.05484365       2.06379612       2.05809875       2.08102848       2.07422851       2.09584044       2.05681875       2.07241636       2.07562157       2.08976389       2.10799626       2.10608187       2.13339052       2.11978055
         2.14616493       2.18467975       2.15279905       2.20860937       2.25380064       2.30745409       2.33656348       2.35849033       2.34181759       2.36377154       2.31812268       2.36078101       2.25238886       2.28928351       2.26395480       2.30063412       2.32911456       2.37182711       2.32732235       2.34796437
         2.33302973       2.35367505       2.36934864       2.39146056       2.37508008       2.39723003       2.38102138       2.40413589       2.38634736       2.40952394       2.44259066       2.40606574       2.45380317       2.52344947       2.41730690       2.46537478       2.41428153       2.43778871       2.42010601       2.44368493
         2.46195500       2.48674892       2.46793936       2.49283746       2.51578343       2.56821677       2.52816365       2.58118909       2.62942823       2.73861673       2.65679591       2.76950231       2.91762308       3.10737717       3.23598138       3.28275165       3.23584833       3.08409510       2.80181481       2.37917223
         2.34241673       2.14899092       2.54494434      -6.50000000       3.00050681       3.10763855      -2.50000000      -0.50000000      -3.50000000      -3.50000000      -3.50000000      -3.50000000       1.29853906       1.33133802       1.29470710       1.32776875       1.36438502       1.39002628       1.40658733       1.38850127
         1.40514485       1.35358642       1.37026461       1.35191137       1.36866047       1.39458786       1.29093954       1.32423783       1.28725107       1.31322502       1.33003980       1.31147504       1.32834136       1.35024185       1.36705866       1.34857935       1.36546057       1.38391143       1.40078491       1.38238074
         1.39932461       1.34692538       1.36386762       1.34528144       1.36228121       1.38085183       1.39786280       1.37932602       1.39640070       1.42314202       1.43967441       1.42178482       1.43840524       1.46383182       1.42810906       1.46153644       1.49666071       1.52143375       1.53749114       1.52064418
         1.53680497       1.49473913       1.52758548       1.42542595       1.45918281       1.42271541       1.45677738       1.48490486       1.50156475       1.48384140       1.50058944       1.51813140       1.53458845       1.51724707       1.53379786       1.48276095       1.49959428       1.48166421       1.49857985       1.51634010
         1.53298194       1.51541099       1.53214108       1.56105843       1.59237395       1.55994558       1.59169372       1.62294117       1.64525530       1.65981820       1.64535373       1.66003655       1.62271082       1.65288654       1.55871448       1.59087823       1.55736626       1.58992678       1.62232976       1.65295762
         1.62179545       1.65285972       1.70329386       1.71690771       1.67447527       1.71738388       1.73711671       1.71109422       1.73139707       1.74467625       1.73191889       1.74532580       1.81698977       1.83976651       1.75765109       1.82425127       1.75842991       1.82516367       1.83584417       1.84708266
         1.83689189       1.84826694       1.67523829       1.71856994       1.67540439       1.71888150       1.73239778       1.74593117       1.73283275       1.74649127       1.67552520       1.71914979       1.67560005       1.71937402       1.73322288       1.74700504       1.73356727       1.74747148       1.75916339       1.82603945
         1.75985032       1.82687730       1.83790217       1.84941302       1.83887358       1.85051932       1.82183278       1.83980470       1.85158433       1.84069418       1.85260657      -1.50000000      -1.50000000      -1.50000000      -1.50000000      -1.50000000      -1.50000000      -1.50000000      -1.50000000      -1.50000000
        -1.50000000      -1.50000000      -1.50000000      -1.50000000      -1.50000000      -1.50000000      -1.50000000      -1.50000000      -1.50000000      -1.50000000      -1.50000000      -1.50000000      -1.50000000      -1.50000000      -1.50000000      -1.50000000      -1.50000000      -1.50000000      -1.50000000      -1.50000000
        -1.50000000      -1.50000000      -1.50000000      -1.50000000      -1.50000000      -1.50000000      -1.50000000      -1.50000000      -1.50000000      -1.50000000      -1.50000000      -1.50000000      -1.50000000      -1.50000000       0.50000000       0.50000000       0.50000000       0.50000000       0.50000000       0.50000000
         0.50000000       0.50000000       0.50000000       0.50000000       0.50000000       0.50000000       0.50000000       0.50000000       0.50000000       0.50000000       0.50000000       0.50000000       0.50000000       0.50000000       0.50000000       0.50000000       0.50000000       0.50000000       0.50000000       0.50000000
         0.50000000       0.50000000       0.50000000       0.50000000       0.50000000       0.50000000       0.50000000       0.50000000       0.50000000       0.50000000       0.50000000       0.50000000       0.50000000       0.50000000       1.99798888       2.00645945       2.00595198       2.01518901       2.01404957       2.02085602
         2.02359192       2.03126289       2.01372801       2.02371544       2.02128371       2.03200281       2.03291043       2.04141930       2.03735148       2.04206595       2.04171159       2.04661987       2.04662349       2.05103826       2.05137604       2.05599438       2.02698217       2.03253972       2.03831018       2.04484921
         2.03308409       2.03541198       2.03971181       2.04231649       2.03766736       2.03987009       2.04485732       2.04735393       2.05100435       2.05691165       2.04935358       2.05683038       2.06007111       2.06844285       2.05906919       2.06245565       2.06532887       2.06896073       2.06579733       2.06911211
         2.07255238       2.07612091       2.07148467       2.07535499       2.07753266       2.08163491       2.07918905       2.08300313       2.08570443       2.08975667       2.04710932       2.05180302       2.06272287       2.06861104       2.06882524       2.07778951       2.08475503       2.09229738       2.10025099       2.10424096
         2.08955222       2.09105986       2.09351874       2.10006609       2.10509947       2.11170324       2.11264245       2.12423988       2.12824668       2.14669594       2.10758459       2.11617713       2.11921859       2.12775350       2.12593436       2.13692457       2.13741693       2.14831900       2.12985683       2.13818618
         2.13964415       2.14764138       2.15728096       2.16175830       2.19199142       2.18104102       2.21337571       2.15663845       2.17294367       2.17257079       2.18605400       2.21014923       2.28468008       2.10134890       2.29365880       2.20678334       2.13303925       2.10857450       2.10366316       2.10869648
         2.13864184       2.14213651       2.16841551       2.17985531       2.21238097       2.24245410       2.22500958       2.25466227       2.20671767       2.25810931       2.26412742       2.28159637       2.27008421       2.28749400       2.29986539       2.31893373       2.30572124       2.32476513       2.27607577       2.29343139
         2.28209746       2.29940418       2.31162148       2.33064518       2.31756197       2.33656998       2.33879749       2.35944927       2.34462166       2.36528332       2.38087800       2.40306867       2.38673889       2.40897319       2.35049841       2.37117359       2.35642409       2.37711663       2.39265936       2.41494040
         2.39863615       2.42096717       2.29968957       2.33592728       2.31182709       2.34799904       2.36239520       2.38310912       2.36840841       2.38914789       2.40466609       2.42705052       2.41074616       2.43318752       2.38778223       2.41687345       2.43937539       2.42304520       2.44561144       2.42600218
         2.44965516       2.43196692       2.45569646       2.47399990       2.49900420       2.48013381       2.50524647       2.43799719       2.46180593       2.44409004       2.46798073       2.48633833       2.51156161       2.49261072       2.51794697       2.52463144       2.55084050       2.53099745       2.55734526       2.59450430
         2.55389147       2.60814312       2.46525269       2.51480702       2.47786640       2.52784343       2.56719846       2.62208580       2.56390085       2.59097267       2.57067842       2.59790123       2.61866625       2.64692947       2.62575947       2.65420069       2.68564997       2.80199583       2.67905659       2.73763306
         2.69404057       2.73455322       2.76449243       2.74243526       2.77260249       2.79728140       2.85742397       2.79468237       2.82505002       2.80303203       2.83365048       2.87525874       2.91860539       3.03065457       2.95696150       3.07396245       3.20555731       3.35631096       3.42782578       3.41124455
         3.30639342       3.11582956       2.79870348       2.40766446       2.52974634       2.83265108       3.01506811       3.12664898       3.19948108      -2.50000000      -2.50000000      -2.50000000      -1.50000000      -1.50000000      -1.50000000      -1.50000000      -1.50000000       0.50000000       0.50000000       0.50000000
         0.50000000       0.50000000       0.50000000       0.50000000       0.50000000       0.50000000       0.50000000       0.50000000       0.50000000       0.50000000       0.50000000       0.50000000       0.50000000       0.50000000       0.50000000       0.50000000       0.50000000       0.50000000       0.50000000       0.50000000
         0.50000000       0.50000000       0.50000000       0.50000000       0.50000000       0.50000000       0.50000000       0.50000000       0.50000000       0.50000000       0.50000000       0.50000000       0.50000000       0.50000000       0.50000000       0.50000000       0.50000000       0.50000000       0.50000000       0.50000000
         0.50000000       1.43586114       1.48851575       1.51446024       1.53127567       1.51348840       1.53038616       1.48630564       1.52051237       1.41450595       1.44932086       1.41177377       1.44678055       1.48403745       1.51852136       1.48171760       1.50833422       1.52559485       1.50724902       1.52457180
         1.55590263       1.58883928       1.54634178       1.56308609       1.54548475       1.56231145       1.57969010       1.59613837       1.57900096       1.59553778       1.62110598       1.65258907       1.61241596       1.62850855       1.61190690       1.62809394       1.65214258       1.54460190       1.56150785       1.54369370
         1.56067564       1.57827980       1.59490219       1.57752687       1.59423177       1.54276067       1.55981525       1.54180332       1.55892711       1.58476858       1.61135996       1.62763865       1.61077521       1.62714264       1.64372442       1.65960418       1.64332018       1.65929466       1.61015273       1.62660591
         1.60949267       1.62602850       1.64287230       1.65893867       1.64238073       1.65853605       1.67562837       1.71955347       1.67560957       1.71968744       1.73386508       1.74788962       1.73411550       1.74825853       1.71239910       1.74159485       1.82313671       1.84804530       1.76254709       1.83045429
         1.76293160       1.83103925       1.84309996       1.85540263       1.84381031       1.85624003       1.71227860       1.73457511       1.74906142       1.73462892       1.74922520       1.71197128       1.74202734       1.76326231       1.83157830       1.76353838       1.83207054       1.84447300       1.85702805       1.84508699