# File generated by Flopy version 3.9.1 on 02/12/2026 at 09:38:22.
BEGIN options
END options

BEGIN dimensions
  NLAY  2
  NCPL  4768
  NVERT  3044
END dimensions

BEGIN griddata
  top
    INTERNAL  FACTOR  1.0
         3.00000000     -16.00000000     -16.00000000     -16.00000000     -16.00000000     -16.00000000      -6.00000000       4.00000000      11.00000000     -16.00000000     -16.00000000     -16.00000000       7.00000000       7.00000000      10.00000000     -16.00000000       2.00000000       6.00000000     -11.00000000       1.00000000
       -13.00000000     -16.00000000       1.00000000     -16.00000000     -13.00000000     -15.00000000       5.00000000     -16.00000000       5.00000000       3.00000000       6.00000000       6.00000000       5.00000000     -12.00000000       4.00000000      12.00000000       7.00000000      -9.00000000      -6.00000000     -16.00000000
        11.00000000      11.00000000      -6.00000000      12.00000000      -2.00000000       7.00000000     -16.00000000      79.00000000     -16.00000000     -16.00000000      65.00000000     -16.00000000     -12.00000000      -6.00000000      -5.00000000      12.00000000       0.00000000      12.00000000     123.00000000      -6.00000000
        13.00000000       7.00000000      -2.00000000      12.00000000      18.00000000     -16.00000000      29.00000000      -2.00000000     -16.00000000      17.00000000     -16.00000000       5.00000000      -2.00000000      16.00000000      -2.00000000      10.00000000     -11.00000000       0.00000000     -16.00000000      -3.00000000
       -16.00000000      -8.00000000     -11.00000000       0.00000000      -7.00000000      -2.00000000       2.00000000     -11.00000000     -16.00000000      -1.00000000       8.00000000       5.00000000     -13.00000000      -6.00000000      -7.00000000      -5.00000000      -2.00000000     -16.00000000      -6.00000000       1.00000000
       -13.00000000     -16.00000000     -16.00000000      -8.00000000      -7.00000000       6.00000000       3.00000000       2.00000000      33.00000000      10.00000000       4.00000000       6.00000000       4.00000000      -4.00000000       1.00000000      -2.00000000       3.00000000       4.00000000      -2.00000000       5.00000000
         1.00000000      -2.00000000       0.00000000      -1.00000000       1.00000000       5.00000000     -13.00000000       7.00000000       6.00000000     -14.00000000       6.00000000     -16.00000000      10.00000000      -2.00000000      -9.00000000      10.00000000       0.00000000       2.00000000       7.00000000      -2.00000000
         9.00000000      -2.00000000       6.00000000      -7.00000000      -6.00000000     -11.00000000     -16.00000000     -16.00000000       9.00000000       5.00000000     -10.00000000     -16.00000000      -5.00000000      -7.00000000       2.00000000      32.00000000      87.00000000     -16.00000000     108.00000000       8.00000000
       108.00000000      -8.00000000     -15.00000000      83.00000000       0.00000000     117.00000000      79.00000000     -16.00000000     -10.00000000      -3.00000000      86.00000000      79.00000000       0.00000000      87.00000000      -1.00000000      88.00000000      85.00000000      91.00000000     -16.00000000      -9.00000000
       -16.00000000     111.00000000     -10.00000000     -14.00000000     101.00000000      -3.00000000      77.00000000      87.00000000      89.00000000      90.00000000     112.00000000       0.00000000      -8.00000000      61.00000000     -14.00000000      -2.00000000      67.00000000     -16.00000000      79.00000000      86.00000000
        67.00000000      82.00000000      -1.00000000     -11.00000000      58.00000000      70.00000000      -6.00000000      -2.00000000      -9.00000000     -16.00000000     -16.00000000      65.00000000       8.00000000      -6.00000000      60.00000000      -6.00000000      60.00000000      62.00000000     -16.00000000      68.00000000
        -6.00000000      43.00000000      55.00000000      -6.00000000      -6.00000000     -16.00000000      41.00000000      59.00000000     -13.00000000      -6.00000000      -6.00000000     -16.00000000       1.00000000      77.00000000     -16.00000000      59.00000000      -6.00000000     108.00000000      -6.00000000     -16.00000000
       149.00000000     124.00000000     139.00000000     -15.00000000      49.00000000     -16.00000000     128.00000000      89.00000000      66.00000000     -16.00000000     150.00000000      60.00000000     -14.00000000      40.00000000      95.00000000     -16.00000000      69.00000000      10.00000000      79.00000000      67.00000000
        74.00000000     -11.00000000     -16.00000000      -6.00000000     -16.00000000     -16.00000000      73.00000000      75.00000000      34.00000000      78.00000000     -16.00000000       9.00000000      54.00000000      -8.00000000      40.00000000     -16.00000000      33.00000000      -6.00000000      39.00000000      40.00000000
        -6.00000000      43.00000000      -6.00000000      37.00000000      -2.00000000      40.00000000      -6.00000000      38.00000000     -16.00000000      -6.00000000      -8.00000000      38.00000000      27.00000000      -6.00000000      28.00000000      27.00000000      30.00000000      29.00000000     -16.00000000      26.00000000
        -2.00000000      -6.00000000     -16.00000000     -16.00000000      30.00000000       6.00000000      26.00000000     -16.00000000     -13.00000000      29.00000000      -9.00000000      30.00000000      48.00000000      -1.00000000     -16.00000000      -8.00000000      13.00000000      28.00000000       0.00000000     -16.00000000
        -8.00000000      -6.00000000     -16.00000000      -6.00000000      -6.00000000      -6.00000000     -16.00000000      -9.00000000      -2.00000000     -16.00000000     -15.00000000     -15.00000000     -16.00000000      -2.00000000     -16.00000000      -7.00000000      -6.00000000     -12.00000000      -6.00000000     -16.00000000
       -16.00000000      -6.00000000      -2.00000000      -2.00000000     -15.00000000     -15.00000000      -6.00000000       0.00000000     -11.00000000     -16.00000000     -15.00000000     -16.00000000      -9.00000000      -6.00000000      -2.00000000     -16.00000000     -16.00000000     -16.00000000       0.00000000       0.00000000
       -16.00000000       0.00000000      -9.00000000     -16.00000000     -16.00000000      -5.00000000     -16.00000000       8.00000000       3.00000000     -16.00000000     -16.00000000     -14.00000000       0.00000000      -2.00000000      -9.00000000       0.00000000     -16.00000000     -15.00000000      -6.00000000     -16.00000000
         0.00000000       2.00000000      -7.00000000       0.00000000     -14.00000000     -15.00000000     -14.00000000     -16.00000000     -14.00000000      -1.00000000      -2.00000000      -5.00000000      -1.00000000     -16.00000000       3.00000000       0.00000000       2.00000000       0.00000000     -16.00000000      -2.00000000
         2.00000000     -13.00000000       0.00000000     -16.00000000     -16.00000000       7.00000000      -6.00000000      -4.00000000     -12.00000000     -16.00000000     -12.00000000      -2.00000000      -5.00000000      -6.00000000     -16.00000000     -15.00000000     -16.00000000     -16.00000000      -8.00000000     -16.00000000
        90.00000000     -16.00000000     -15.00000000     -16.00000000     -16.00000000     -16.00000000     -16.00000000     -16.00000000      -2.00000000     -16.00000000     -13.00000000      -2.00000000      -2.00000000     -16.00000000      -6.00000000      91.00000000     -16.00000000      -9.00000000     -16.00000000      -2.00000000
       -16.00000000     -12.00000000     -16.00000000     -16.00000000      -2.00000000     -16.00000000     -16.00000000     -16.00000000     -16.00000000      -2.00000000      -2.00000000     -16.00000000     -16.00000000     -16.00000000     -16.00000000     -16.00000000     -16.00000000     -16.00000000     -16.00000000      -6.00000000
       -16.00000000      -2.00000000     -16.00000000     -16.00000000     -16.00000000      -6.00000000     -16.00000000     -16.00000000     -16.00000000      -5.00000000     -16.00000000      -2.00000000      -8.00000000     -15.00000000       4.00000000     -16.00000000      -2.00000000     -13.00000000     -13.00000000      -2.00000000
       -14.00000000     -16.00000000     -14.00000000      -2.00000000     103.00000000     -13.00000000     -10.00000000     -15.00000000     -16.00000000     -16.00000000       9.00000000     -16.00000000      -3.00000000     -16.00000000     -16.00000000      -2.00000000     -16.00000000     -16.00000000     -15.00000000     -16.00000000
       -16.00000000      -9.00000000     -16.00000000     -16.00000000     -16.00000000     -16.00000000     -16.00000000     -16.00000000      -2.00000000     -16.00000000     -16.00000000     -16.00000000      -6.00000000     -16.00000000     -15.00000000      -5.00000000       1.00000000      -4.00000000      -2.00000000      -6.00000000
       -16.00000000     -16.00000000     -15.00000000       3.00000000      -1.00000000       8.00000000       1.00000000      -2.00000000       0.00000000     -15.00000000     -16.00000000      -9.00000000      -6.00000000      -6.00000000     -15.00000000      -2.00000000     -16.00000000      -2.00000000      -1.00000000      -2.00000000
       -15.00000000      -2.00000000       1.00000000       5.00000000      -6.00000000      -2.00000000      -5.00000000      -6.00000000       6.00000000     -16.00000000       2.00000000     -14.00000000     -11.00000000       1.00000000      -2.00000000       0.00000000      -2.00000000      -2.00000000      -6.00000000      -6.00000000
        -2.00000000     -16.00000000      -2.00000000      -6.00000000     -16.00000000      -2.00000000       0.00000000      -6.00000000      -1.00000000      -2.00000000     -16.00000000     -16.00000000      -6.00000000     -16.00000000      -2.00000000      -1.00000000      -6.00000000     -16.00000000      -1.00000000      -6.00000000
        -6.00000000       0.00000000     -16.00000000       2.00000000       0.00000000       1.00000000       1.00000000     -16.00000000       0.00000000      -2.00000000       1.00000000      -2.00000000     -16.00000000     -16.00000000       0.00000000       0.00000000      -6.00000000     -16.00000000       0.00000000     -16.00000000
        -6.00000000       1.00000000      -2.00000000     -16.00000000       1.00000000       0.00000000       0.00000000     -16.00000000       0.00000000     -16.00000000     -16.00000000      -2.00000000     -16.00000000      -2.00000000      -2.00000000      -9.00000000      -2.00000000     -16.00000000     -16.00000000      -1.00000000
        -2.00000000       0.00000000     -16.00000000     -16.00000000     -16.00000000     -16.00000000      -2.00000000     -16.00000000      -1.00000000     -16.00000000       1.00000000      -6.00000000      -1.00000000      -2.00000000       0.00000000      -2.00000000       0.00000000      -9.00000000      30.00000000       1.00000000
       -16.00000000      -6.00000000      -6.00000000      33.00000000      33.00000000      30.00000000      -1.00000000      -2.00000000      33.00000000      -6.00000000      -6.00000000     -16.00000000      37.00000000      33.00000000      -6.00000000      32.00000000     -16.00000000      34.00000000     -16.00000000      38.00000000
        30.00000000     -16.00000000     -16.00000000      30.00000000     -16.00000000      29.00000000     -16.00000000      28.00000000      29.00000000     -16.00000000      -6.00000000      29.00000000      -6.00000000      27.00000000      -6.00000000      28.00000000      -6.00000000      28.00000000      30.00000000     -16.00000000
        40.00000000      -2.00000000     -16.00000000     -16.00000000     -16.00000000      30.00000000      29.00000000      -6.00000000      -6.00000000     -16.00000000      -6.00000000     -16.00000000     -16.00000000      -2.00000000      -2.00000000      39.00000000      38.00000000     -16.00000000      36.00000000     -16.00000000
        35.00000000      41.00000000     -16.00000000      37.00000000      29.00000000      29.00000000      -9.00000000      33.00000000     -16.00000000      29.00000000     -16.00000000      30.00000000      30.00000000      29.00000000      32.00000000      40.00000000     -16.00000000      29.00000000      -2.00000000      -3.00000000
       -16.00000000      -2.00000000       6.00000000      -9.00000000     -15.00000000      -3.00000000      -2.00000000      -2.00000000      -4.00000000      -5.00000000     -16.00000000     -16.00000000      -4.00000000     -16.00000000      -3.00000000     -16.00000000     -16.00000000      -3.00000000       3.00000000     -15.00000000
       -16.00000000     -16.00000000     -16.00000000     -16.00000000      -2.00000000      -2.00000000      -2.00000000     -16.00000000      -2.00000000      -2.00000000      -9.00000000      -2.00000000      -3.00000000      -6.00000000      -3.00000000      -2.00000000     -16.00000000      -2.00000000      -2.00000000      -2.00000000
        -2.00000000      -2.00000000      -2.00000000      40.00000000      39.00000000      -6.00000000     -16.00000000      39.00000000      -1.00000000      38.00000000     -16.00000000      -3.00000000      26.00000000      28.00000000      -2.00000000      -2.00000000      -6.00000000      -2.00000000      -2.00000000     -16.00000000
        -2.00000000      -2.00000000     -16.00000000      -2.00000000      -2.00000000      40.00000000      -2.00000000      -9.00000000      -2.00000000     -16.00000000      -2.00000000     -16.00000000     -16.00000000      -6.00000000      31.00000000     -16.00000000     -15.00000000      30.00000000      27.00000000      -6.00000000
        -6.00000000      27.00000000      -2.00000000      26.00000000      -6.00000000       0.00000000      29.00000000     -16.00000000      28.00000000      -2.00000000      28.00000000     -16.00000000     -13.00000000     -16.00000000     -10.00000000       3.00000000      29.00000000     -16.00000000      27.00000000      27.00000000
       -16.00000000      28.00000000      -6.00000000      29.00000000      30.00000000     -16.00000000      21.00000000      22.00000000      -6.00000000      30.00000000     -13.00000000      -2.00000000     -16.00000000      -1.00000000      -6.00000000       0.00000000     -16.00000000     -16.00000000      -6.00000000     -16.00000000
        24.00000000      29.00000000     -16.00000000      30.00000000     -11.00000000     -14.00000000      24.00000000      -6.00000000      20.00000000      25.00000000      -7.00000000      24.00000000     -10.00000000     -16.00000000      -6.00000000      26.00000000      26.00000000      28.00000000     -14.00000000      25.00000000
        20.00000000     -16.00000000      25.00000000      -6.00000000       5.00000000       4.00000000     -16.00000000       8.00000000      -3.00000000      23.00000000      -6.00000000      21.00000000     -16.00000000      30.00000000      -3.00000000       0.00000000      -6.00000000      -2.00000000       0.00000000       8.00000000
        -6.00000000     -16.00000000      -2.00000000     -16.00000000      -6.00000000       7.00000000       2.00000000       3.00000000       0.00000000      -6.00000000      10.00000000      -2.00000000       0.00000000     -16.00000000     -16.00000000       8.00000000      11.00000000       9.00000000      -6.00000000     -16.00000000
        10.00000000       1.00000000      -6.00000000       0.00000000      -6.00000000       9.00000000       4.00000000     -16.00000000      -6.00000000       4.00000000      -5.00000000       4.00000000      -6.00000000      -6.00000000       1.00000000      -4.00000000     -16.00000000      -9.00000000      -6.00000000     -16.00000000
        -9.00000000      -9.00000000       0.00000000       6.00000000      -8.00000000       1.00000000       4.00000000     -15.00000000      -8.00000000       0.00000000      -2.00000000     -13.00000000      -2.00000000      -9.00000000     -16.00000000      -9.00000000      -9.00000000      -9.00000000      -9.00000000     -16.00000000
        -9.00000000      -7.00000000      -9.00000000      -9.00000000      -9.00000000       4.00000000      -9.00000000      -9.00000000      -8.00000000      -4.00000000     -16.00000000     -16.00000000       0.00000000      -6.00000000      -4.00000000      27.00000000      -8.00000000     114.00000000     -14.00000000     -15.00000000
         9.00000000       7.00000000      -6.00000000     -13.00000000       8.00000000     -16.00000000      -6.00000000      10.00000000      -6.00000000       1.00000000      10.00000000      -9.00000000       2.00000000      -6.00000000       1.00000000      -9.00000000     -16.00000000       5.00000000       3.00000000      10.00000000
         6.00000000     -16.00000000       8.00000000      -9.00000000      78.00000000      -9.00000000      -7.00000000      -7.00000000      -8.00000000      -2.00000000      -2.00000000      -6.00000000       0.00000000      -9.00000000      -2.00000000       6.00000000      -6.00000000      -4.00000000      -9.00000000      -9.00000000
        -8.00000000     106.00000000      -1.00000000      -9.00000000      -1.00000000      -4.00000000      -2.00000000      -9.00000000      -6.00000000      -9.00000000      -9.00000000       0.00000000      -6.00000000      -8.00000000      29.00000000      -2.00000000      -9.00000000      -2.00000000     -16.00000000      79.00000000
        -9.00000000     -16.00000000      88.00000000      69.00000000      -9.00000000      -2.00000000      -9.00000000      -2.00000000      -2.00000000      -9.00000000      90.00000000      -9.00000000      -8.00000000       2.00000000       3.00000000      -2.00000000     -11.00000000       9.00000000       0.00000000       8.00000000
        -6.00000000      -6.00000000       1.00000000     -12.00000000      -6.00000000       4.00000000       4.00000000       3.00000000     -16.00000000       4.00000000       2.00000000     -16.00000000       8.00000000      -6.00000000       8.00000000       7.00000000      -6.00000000       9.00000000     -16.00000000      -6.00000000
         9.00000000     -11.00000000      -9.00000000      -2.00000000      -9.00000000       4.00000000     -16.00000000     -16.00000000      -2.00000000       6.00000000     -16.00000000      -7.00000000       9.00000000      -6.00000000     -16.00000000     -10.00000000      33.00000000       0.00000000     -16.00000000      -2.00000000
        -9.00000000       2.00000000     -16.00000000      -3.00000000      -6.00000000     -16.00000000      -9.00000000      -2.00000000      -9.00000000     -16.00000000      -9.00000000     -16.00000000      10.00000000       6.00000000      -2.00000000       3.00000000      33.00000000     -16.00000000      -2.00000000       3.00000000
        -2.00000000     -16.00000000      -8.00000000      -8.00000000      31.00000000      -9.00000000      -7.00000000     -16.00000000     -16.00000000     -16.00000000      -8.00000000       9.00000000      -2.00000000     -16.00000000       0.00000000       3.00000000      -9.00000000      -5.00000000      40.00000000      -8.00000000
       -16.00000000     -16.00000000      -8.00000000      -5.00000000      -9.00000000       0.00000000     -16.00000000      26.00000000      -4.00000000     -16.00000000      -4.00000000      -8.00000000       0.00000000      -9.00000000      -2.00000000      -9.00000000     -15.00000000      -8.00000000      -9.00000000     -15.00000000
        -1.00000000     -16.00000000      -8.00000000      -9.00000000      -9.00000000     -16.00000000      -9.00000000     -16.00000000      -9.00000000      -8.00000000      -8.00000000     -16.00000000       0.00000000      -9.00000000      -7.00000000       0.00000000     -16.00000000      -9.00000000      -6.00000000      -9.00000000
         0.00000000      -7.00000000      -9.00000000      -1.00000000      -6.00000000      -4.00000000      -9.00000000      -6.00000000      -1.00000000      -2.00000000       0.00000000     -16.00000000     -16.00000000      -7.00000000       0.00000000      -2.00000000     -16.00000000     -16.00000000      -9.00000000      -5.00000000
        -8.00000000     -16.00000000      -9.00000000     -16.00000000      -2.00000000      -8.00000000       8.00000000      -9.00000000      -8.00000000     -16.00000000       2.00000000      -2.00000000       0.00000000     -15.00000000     -16.00000000      -6.00000000      -6.00000000      -9.00000000      -9.00000000      -7.00000000
        -1.00000000      -2.00000000      -6.00000000       8.00000000     -16.00000000     -16.00000000       2.00000000     -16.00000000       0.00000000     -16.00000000      10.00000000     -16.00000000     -16.00000000       1.00000000      -6.00000000       0.00000000      -6.00000000      -6.00000000      -4.00000000      -6.00000000
       -16.00000000      -8.00000000     -16.00000000      -6.00000000     -16.00000000     -16.00000000      -8.00000000     -16.00000000      -6.00000000      -8.00000000       0.00000000     -16.00000000      -6.00000000      -6.00000000      -6.00000000      -9.00000000      18.00000000      -3.00000000       1.00000000       4.00000000
        -6.00000000      -2.00000000      -1.00000000      -7.00000000      -8.00000000     -16.00000000      -6.00000000      -8.00000000      -7.00000000       1.00000000     -14.00000000      -9.00000000      -1.00000000      -6.00000000      -6.00000000      -2.00000000       0.00000000      -6.00000000       2.00000000      -6.00000000
        -4.00000000      -2.00000000      -2.00000000      -4.00000000       2.00000000      26.00000000      -9.00000000      -8.00000000      -6.00000000      -8.00000000      -8.00000000      -6.00000000      -5.00000000      -2.00000000     -11.00000000     -16.00000000       5.00000000      -9.00000000      -1.00000000       1.00000000
        -1.00000000       2.00000000      -9.00000000      -9.00000000      -2.00000000       1.00000000      -5.00000000       0.00000000       7.00000000       5.00000000       0.00000000       0.00000000       1.00000000       1.00000000       1.00000000       0.00000000     -12.00000000      -4.00000000       9.00000000     -16.00000000
       -16.00000000       0.00000000       1.00000000       0.00000000      -7.00000000       2.00000000      -4.00000000      -1.00000000       3.00000000       0.00000000      -6.00000000      15.00000000      -1.00000000       2.00000000       0.00000000      11.00000000       2.00000000      29.00000000       6.00000000      -4.00000000
         0.00000000       1.00000000      -8.00000000      -6.00000000     -16.00000000     -11.00000000     -16.00000000       2.00000000       2.00000000       0.00000000       1.00000000       0.00000000       0.00000000     -16.00000000       0.00000000       0.00000000      27.00000000      -6.00000000       8.00000000      28.00000000
        -8.00000000      12.00000000       8.00000000      27.00000000       7.00000000      14.00000000      30.00000000      -9.00000000      29.00000000      39.00000000      36.00000000      27.00000000      -4.00000000       2.00000000       1.00000000       0.00000000       3.00000000       2.00000000       8.00000000       6.00000000
         0.00000000       0.00000000     -14.00000000       0.00000000       1.00000000       0.00000000       0.00000000      -7.00000000      -3.00000000       4.00000000       1.00000000      -3.00000000       5.00000000      -3.00000000       4.00000000       1.00000000      -2.00000000       1.00000000       5.00000000      12.00000000
         0.00000000       0.00000000       7.00000000      -4.00000000     -11.00000000      -4.00000000      10.00000000      -6.00000000       1.00000000       0.00000000       0.00000000       0.00000000       0.00000000       7.00000000       8.00000000      23.00000000      22.00000000       0.00000000       2.00000000     -16.00000000
         1.00000000      10.00000000       0.00000000      -2.00000000       6.00000000       2.00000000      -7.00000000      -2.00000000      16.00000000      10.00000000       3.00000000      -1.00000000       0.00000000       0.00000000       2.00000000      -1.00000000       0.00000000       3.00000000      -6.00000000      -6.00000000
        -2.00000000      -1.00000000       0.00000000      -4.00000000      -4.00000000       0.00000000       3.00000000       1.00000000       0.00000000       2.00000000       5.00000000       8.00000000      -2.00000000       0.00000000       0.00000000       2.00000000      -6.00000000      -5.00000000       0.00000000       0.00000000
         1.00000000      -1.00000000      -4.00000000      -3.00000000       8.00000000       9.00000000       3.00000000       5.00000000       0.00000000      -8.00000000       2.00000000       9.00000000       0.00000000       9.00000000      -8.00000000       9.00000000      -6.00000000      -6.00000000      17.00000000      22.00000000
        -4.00000000      29.00000000     -10.00000000      -3.00000000       0.00000000      35.00000000      -2.00000000      -1.00000000       2.00000000       9.00000000      23.00000000       2.00000000       2.00000000       0.00000000       5.00000000      27.00000000      27.00000000       2.00000000       0.00000000       9.00000000
       -14.00000000      15.00000000       0.00000000      -4.00000000      -2.00000000       2.00000000      14.00000000     -16.00000000      -5.00000000       1.00000000       1.00000000      -6.00000000      -6.00000000     -16.00000000      -6.00000000       4.00000000       8.00000000       0.00000000       6.00000000       1.00000000
         1.00000000      -1.00000000       2.00000000       2.00000000      14.00000000       3.00000000       8.00000000       7.00000000       1.00000000      -2.00000000      17.00000000      15.00000000     -16.00000000      10.00000000      -2.00000000       1.00000000      33.00000000      27.00000000       6.00000000      -6.00000000
       -16.00000000      -2.00000000      11.00000000       8.00000000       1.00000000       5.00000000      26.00000000      11.00000000       9.00000000       5.00000000       9.00000000       0.00000000       0.00000000      -6.00000000       2.00000000      10.00000000      -1.00000000      -1.00000000      -5.00000000      -2.00000000
        -2.00000000       5.00000000       8.00000000      -2.00000000      32.00000000      26.00000000       1.00000000      14.00000000      -6.00000000      26.00000000       3.00000000      26.00000000       4.00000000      26.00000000       6.00000000      79.00000000      29.00000000      29.00000000      38.00000000      60.00000000
        -5.00000000       0.00000000       0.00000000       0.00000000       0.00000000       0.00000000       0.00000000      27.00000000      39.00000000      27.00000000      26.00000000       2.00000000       1.00000000       1.00000000      27.00000000      30.00000000      29.00000000      28.00000000       6.00000000       3.00000000
         2.00000000       9.00000000       1.00000000      13.00000000       1.00000000       9.00000000      -6.00000000      -6.00000000      -2.00000000      82.00000000      28.00000000      29.00000000      40.00000000      -1.00000000      40.00000000      26.00000000      27.00000000      -3.00000000      28.00000000      -2.00000000
        35.00000000      66.00000000       1.00000000     103.00000000      49.00000000      30.00000000      38.00000000      30.00000000      40.00000000       2.00000000       7.00000000       1.00000000      -6.00000000      -6.00000000       8.00000000       5.00000000       7.00000000       7.00000000      -6.00000000      -6.00000000
         9.00000000       9.00000000       2.00000000       0.00000000      19.00000000       0.00000000      24.00000000       8.00000000       7.00000000       0.00000000       1.00000000      27.00000000      28.00000000       0.00000000      10.00000000       0.00000000      -6.00000000     -11.00000000       8.00000000      10.00000000
        86.00000000      89.00000000      76.00000000      71.00000000      28.00000000      41.00000000      10.00000000      -2.00000000       9.00000000       6.00000000       9.00000000      -2.00000000       1.00000000       5.00000000       2.00000000       3.00000000       7.00000000       0.00000000       1.00000000       9.00000000
        11.00000000       7.00000000       9.00000000      -2.00000000      -2.00000000      -1.00000000      -1.00000000      -2.00000000      10.00000000      36.00000000      39.00000000       8.00000000       0.00000000      26.00000000      35.00000000       2.00000000       0.00000000      14.00000000       3.00000000      -6.00000000
         7.00000000       0.00000000      90.00000000       3.00000000       2.00000000       3.00000000       1.00000000       7.00000000      30.00000000      33.00000000      67.00000000       3.00000000      69.00000000       1.00000000       3.00000000       0.00000000       9.00000000      24.00000000      34.00000000      26.00000000
        -1.00000000       8.00000000       5.00000000       8.00000000       9.00000000       2.00000000       9.00000000     -15.00000000     -16.00000000       2.00000000      29.00000000       0.00000000      29.00000000       0.00000000       1.00000000      11.00000000       9.00000000       1.00000000      -9.00000000       8.00000000