# File generated by Flopy version 3.9.1 on 02/12/2026 at 09:38:22.
BEGIN options
  FIXED_CELL
  PRINT_FLOWS
  SAVE_FLOWS
END options

BEGIN dimensions
  MAXBOUND  4768
END dimensions

BEGIN period  1
  1 1 1.78102091E-08
  1 2 9.76720453E-09
  1 3 9.71654449E-09
  1 4 9.64541821E-09
  1 5 9.68954972E-09
  1 6 9.74322801E-09
  1 7 1.29215998E-08
  1 8 1.81199070E-08
  1 9 1.96461455E-08
  1 10 9.64016753E-09
  1 11 9.56542225E-09
  1 12 9.66889058E-09
  1 13 1.96433345E-08
  1 14 1.99983811E-08
  1 15 2.04459556E-08
  1 16 9.70009366E-09
  1 17 1.29439843E-08
  1 18 1.96922860E-08
  1 19 1.19309636E-08
  1 20 1.58062661E-08
  1 21 9.10778710E-09
  1 22 9.41901442E-09
  1 23 1.53338573E-08
  1 24 9.41917520E-09
  1 25 9.10521322E-09
  1 26 9.78882286E-09
  1 27 1.88917501E-08
  1 28 9.73562436E-09
  1 29 1.91052299E-08
  1 30 1.72980363E-08
  1 31 1.96254956E-08
  1 32 1.96291985E-08
  1 33 1.92929044E-08
  1 34 1.19373072E-08
  1 35 1.83700647E-08
  1 36 2.11682878E-08
  1 37 1.96167409E-08
  1 38 1.33973610E-08
  1 39 1.29259283E-08
  1 40 9.49256910E-09
  1 41 2.05664519E-08
  1 42 1.99371004E-08
  1 43 1.29239173E-08
  1 44 2.06914410E-08
  1 45 7.42474445E-09
  1 46 1.96947742E-08
  1 47 9.41774125E-09
  1 48 2.45232030E-09
  1 49 9.51924539E-09
  1 50 9.76308665E-09
  1 51 2.44426487E-09
  1 52 9.66467182E-09
  1 53 9.89870294E-09
  1 54 1.29203772E-08
  1 55 9.93585254E-09
  1 56 2.05728692E-08
  1 57 1.16852905E-08
  1 58 2.05688023E-08
  1 59 2.42837465E-09
  1 60 1.29267651E-08
  1 61 2.13230788E-08
  1 62 2.00688719E-08
  1 63 1.05027789E-08
  1 64 2.07364698E-08
  1 65 2.02335187E-08
  1 66 9.88857038E-09
  1 67 1.86921994E-08
  1 68 7.43542969E-09
  1 69 9.24562363E-09
  1 70 2.08882654E-08
  1 71 9.79839527E-09
  1 72 1.81922319E-08
  1 73 1.05151195E-08
  1 74 2.09078721E-08
  1 75 1.05689324E-08
  1 76 2.08052636E-08
  1 77 1.19286345E-08
  1 78 1.53508403E-08
  1 79 1.42813958E-08
  1 80 8.74465641E-09
  1 81 9.46455682E-09
  1 82 1.42174997E-08
  1 83 1.42052131E-08
  1 84 8.96186770E-09
  1 85 1.42309984E-08
  1 86 9.42202593E-09
  1 87 1.50168393E-08
  1 88 1.19398555E-08
  1 89 1.00074166E-08
  1 90 1.49177223E-08
  1 91 1.27726760E-08
  1 92 1.42250214E-08
  1 93 9.10580389E-09
  1 94 1.05087827E-08
  1 95 1.37124655E-08
  1 96 1.42081394E-08
  1 97 1.18192548E-08
  1 98 1.42076849E-08
  1 99 1.29090924E-08
  1 100 1.41921575E-08
  1 101 1.41853260E-08
  1 102 9.94670968E-09
  1 103 1.42077457E-08
  1 104 9.98148092E-09
  1 105 1.33957694E-08
  1 106 1.37706512E-08
  1 107 1.32625352E-08
  1 108 1.32990117E-08
  1 109 1.72029078E-08
  1 110 1.39592777E-08
  1 111 1.34574115E-08
  1 112 1.38459348E-08
  1 113 1.37158221E-08
  1 114 1.33934982E-08
  1 115 1.53070325E-08
  1 116 1.05415430E-08
  1 117 1.30840711E-08
  1 118 1.48724096E-08
  1 119 1.04211984E-08
  1 120 1.32301980E-08
  1 121 1.29204979E-08
  1 122 1.33941072E-08
  1 123 1.29652659E-08
  1 124 1.27787859E-08
  1 125 8.95795346E-09
  1 126 1.26289754E-08
  1 127 1.19322342E-08
  1 128 1.55606264E-08
  1 129 1.25717933E-08
  1 130 9.89849437E-09
  1 131 1.28341344E-08
  1 132 1.01178556E-08
  1 133 1.10192379E-08
  1 134 1.17974279E-08
  1 135 1.31423418E-08
  1 136 1.16471939E-08
  1 137 9.98144984E-09
  1 138 1.02084742E-08
  1 139 1.05816558E-08
  1 140 1.28123930E-08
  1 141 1.17688479E-08
  1 142 7.41195299E-09
  1 143 1.04766511E-08
  1 144 9.97108069E-09
  1 145 1.29252555E-08
  1 146 9.96658483E-09
  1 147 9.95789664E-09
  1 148 9.95074020E-09
  1 149 1.24150933E-08
  1 150 1.03639831E-08
  1 151 9.96266063E-09
  1 152 1.01618915E-08
  1 153 9.96029845E-09
  1 154 1.37367936E-08
  1 155 1.51926060E-08
  1 156 1.72035505E-08
  1 157 2.44044869E-09
  1 158 9.44902211E-09
  1 159 2.36168889E-09
  1 160 1.19200520E-08
  1 161 2.37029125E-09
  1 162 1.03795682E-08
  1 163 9.89880440E-09
  1 164 2.37606926E-09
  1 165 9.90605102E-09
  1 166 2.37290017E-09
  1 167 2.40856960E-09
  1 168 1.01609766E-08
  1 169 1.19456288E-08
  1 170 1.33937526E-08
  1 171 2.40415360E-09
  1 172 2.38261999E-09
  1 173 9.97962305E-09
  1 174 2.40017197E-09
  1 175 7.43263270E-09
  1 176 2.38381292E-09
  1 177 2.35113914E-09
  1 178 2.35268579E-09
  1 179 9.23751866E-09
  1 180 1.33966179E-08
  1 181 1.19458690E-08
  1 182 2.37082198E-09
  1 183 1.19354054E-08
  1 184 1.19409099E-08
  1 185 2.34981596E-09
  1 186 1.02138877E-08
  1 187 2.35194770E-09
  1 188 2.34693949E-09
  1 189 2.34482419E-09
  1 190 2.37192806E-09
  1 191 2.36091440E-09
  1 192 1.33818441E-08
  1 193 1.01934564E-08
  1 194 2.48689679E-09
  1 195 9.89875746E-09
  1 196 8.78295278E-09
  1 197 2.43715689E-09
  1 198 1.01671883E-08
  1 199 2.42725148E-09
  1 200 2.43635304E-09
  1 201 2.44330735E-09
  1 202 2.42463518E-09
  1 203 1.02167035E-08
  1 204 1.19266983E-08
  1 205 2.46405675E-09
  1 206 2.45869489E-09
  1 207 1.29180823E-08
  1 208 1.05083314E-08
  1 209 1.33971872E-08
  1 210 9.69233713E-09
  1 211 1.42086466E-08
  1 212 2.44834990E-09
  1 213 1.33591392E-08
  1 214 1.29278651E-08
  1 215 2.48512289E-09
  1 216 1.29267388E-08
  1 217 1.67235126E-08
  1 218 1.66353428E-08
  1 219 9.78306921E-09
  1 220 1.67371367E-08
  1 221 1.29252583E-08
  1 222 1.66093845E-08
  1 223 1.68120076E-08
  1 224 1.29193289E-08
  1 225 1.29293967E-08
  1 226 1.42138221E-08
  1 227 1.69023301E-08
  1 228 1.68531556E-08
  1 229 9.89809380E-09
  1 230 1.29262062E-08
  1 231 1.29400430E-08
  1 232 9.78556016E-09
  1 233 1.33946767E-08
  1 234 2.43554883E-09
  1 235 1.19399883E-08
  1 236 1.67636224E-08
  1 237 1.29218157E-08
  1 238 2.43097306E-09
  1 239 1.29228238E-08
  1 240 9.41840595E-09
  1 241 2.48700819E-09
  1 242 2.50053342E-09
  1 243 2.52048512E-09
  1 244 9.89866685E-09
  1 245 1.70926431E-08
  1 246 9.54511960E-09
  1 247 2.42616805E-09
  1 248 2.36667818E-09
  1 249 1.66625122E-08
  1 250 9.79806384E-09
  1 251 2.46751372E-09
  1 252 1.68572400E-08
  1 253 1.19337197E-08
  1 254 1.72537607E-08
  1 255 2.48262237E-09
  1 256 9.73276007E-09
  1 257 2.44545539E-09
  1 258 1.31947154E-08
  1 259 2.47433652E-09
  1 260 2.46732652E-09
  1 261 2.47676749E-09
  1 262 9.77494208E-09
  1 263 1.00371308E-08
  1 264 1.29226049E-08
  1 265 9.81188339E-09
  1 266 9.61997272E-09
  1 267 2.46503057E-09
  1 268 2.46760438E-09
  1 269 1.72904733E-08
  1 270 2.47749815E-09
  1 271 9.41855287E-09
  1 272 7.62571298E-09
  1 273 1.69570340E-08
  1 274 1.33961287E-08
  1 275 1.70663031E-08
  1 276 9.80152335E-09
  1 277 1.72757084E-08
  1 278 1.29187354E-08
  1 279 1.70855000E-08
  1 280 1.70733843E-08
  1 281 1.29374684E-08
  1 282 1.69675788E-08
  1 283 1.29206629E-08
  1 284 1.71231656E-08
  1 285 1.05187896E-08
  1 286 1.72246489E-08
  1 287 1.29176841E-08
  1 288 1.72460986E-08
  1 289 9.80244648E-09
  1 290 1.29282319E-08
  1 291 1.28863549E-08
  1 292 1.72743001E-08
  1 293 1.71732340E-08
  1 294 1.29180280E-08
  1 295 1.71975401E-08
  1 296 1.71895384E-08
  1 297 1.72324815E-08
  1 298 1.72324294E-08
  1 299 1.42068959E-08
  1 300 1.72611671E-08
  1 301 1.05512983E-08
  1 302 1.29263675E-08
  1 303 9.57832209E-09
  1 304 9.48868571E-09
  1 305 1.72197960E-08
  1 306 7.33566312E-09
  1 307 1.71666951E-08
  1 308 9.75923271E-09
  1 309 9.41697173E-09
  1 310 1.72913055E-08
  1 311 9.12119515E-09
  1 312 1.72981351E-08
  1 313 1.69303814E-08
  1 314 9.48091910E-09
  1 315 1.01279985E-08
  1 316 1.33974828E-08
  1 317 9.71021092E-09
  1 318 1.72594273E-08
  1 319 1.00550375E-08
  1 320 9.83304540E-09
  1 321 9.96905093E-09
  1 322 1.29291352E-08
  1 323 9.96741839E-09
  1 324 1.29208137E-08
  1 325 1.29282875E-08
  1 326 1.29322151E-08
  1 327 9.99688973E-09
  1 328 1.33984550E-08
  1 329 7.42908542E-09
  1 330 9.95241812E-09
  1 331 9.94497376E-09
  1 332 9.38280139E-09
  1 333 9.96009124E-09
  1 334 7.43865214E-09
  1 335 1.01800937E-08
  1 336 9.95341511E-09
  1 337 1.29236793E-08
  1 338 9.93844933E-09
  1 339 1.29199325E-08
  1 340 9.31095490E-09
  1 341 9.50777048E-09
  1 342 1.29211307E-08
  1 343 9.92482360E-09
  1 344 1.05126892E-08
  1 345 9.89898169E-09
  1 346 9.89875688E-09
  1 347 1.29277761E-08
  1 348 9.94084069E-09
  1 349 9.89805128E-09
  1 350 9.65605606E-09
  1 351 9.89992033E-09
  1 352 9.27428711E-09
  1 353 9.89784776E-09
  1 354 1.29307274E-08
  1 355 9.89750102E-09
  1 356 9.80107943E-09
  1 357 9.41826251E-09
  1 358 1.19639639E-08
  1 359 1.19566289E-08
  1 360 1.18364245E-08
  1 361 9.79867069E-09
  1 362 9.06031386E-09
  1 363 1.19851311E-08
  1 364 9.77809205E-09
  1 365 9.41800194E-09
  1 366 1.18813303E-08
  1 367 1.19370159E-08
  1 368 1.19518417E-08
  1 369 9.21318613E-09
  1 370 9.79186507E-09
  1 371 1.19536557E-08
  1 372 1.19300424E-08
  1 373 1.21289847E-08
  1 374 1.18424343E-08
  1 375 1.33968924E-08
  1 376 1.21017052E-08
  1 377 1.20654987E-08
  1 378 1.19284343E-08
  1 379 1.29203983E-08
  1 380 1.20709830E-08
  1 381 1.20489110E-08
  1 382 1.19349611E-08
  1 383 1.33970298E-08
  1 384 1.19892897E-08
  1 385 1.19288196E-08
  1 386 1.19281759E-08
  1 387 1.19293972E-08
  1 388 9.80026517E-09
  1 389 1.19284492E-08
  1 390 1.19192081E-08
  1 391 1.19053500E-08
  1 392 9.41954706E-09
  1 393 1.19427608E-08
  1 394 9.96877418E-09
  1 395 9.65198903E-09
  1 396 1.21260115E-08
  1 397 1.27660101E-08
  1 398 1.15001148E-08
  1 399 1.13665713E-08
  1 400 1.18838400E-08
  1 401 1.19599195E-08
  1 402 1.19314135E-08
  1 403 1.00170084E-08
  1 404 9.79340819E-09
  1 405 9.52285028E-09
  1 406 1.06477813E-08
  1 407 1.29258360E-08
  1 408 9.98019202E-09
  1 409 9.82874828E-09
  1 410 9.51219830E-09
  1 411 9.74041371E-09
  1 412 1.04978513E-08
  1 413 9.91282361E-09
  1 414 1.29183044E-08
  1 415 9.79921444E-09
  1 416 9.78314810E-09
  1 417 1.01798838E-08
  1 418 9.80007511E-09
  1 419 1.34309445E-08
  1 420 9.52725280E-09
  1 421 2.48000294E-09
  1 422 9.72033898E-09
  1 423 9.89946706E-09
  1 424 9.80154905E-09
  1 425 1.00492923E-08
  1 426 9.73021226E-09
  1 427 9.66101411E-09
  1 428 9.75174750E-09
  1 429 1.05378126E-08
  1 430 9.73595833E-09
  1 431 9.75797404E-09
  1 432 1.05046537E-08
  1 433 1.15572099E-08
  1 434 1.19271312E-08
  1 435 1.29271850E-08
  1 436 2.39475898E-09
  1 437 9.96615700E-09
  1 438 1.33985294E-08
  1 439 9.98922573E-09
  1 440 1.06530155E-08
  1 441 9.97508394E-09
  1 442 9.39821679E-09
  1 443 1.00084245E-08
  1 444 9.97655416E-09
  1 445 1.06971864E-08
  1 446 1.00154444E-08
  1 447 1.00375800E-08
  1 448 1.00271471E-08
  1 449 9.98815999E-09
  1 450 7.42948583E-09
  1 451 7.43200879E-09
  1 452 1.00161137E-08
  1 453 1.01402681E-08
  1 454 9.26484664E-09
  1 455 1.01766671E-08
  1 456 9.72799488E-09
  1 457 1.01782645E-08
  1 458 1.01786393E-08
  1 459 1.01266640E-08
  1 460 1.29273214E-08
  1 461 1.00905842E-08
  1 462 7.43511645E-09
  1 463 9.81851764E-09
  1 464 1.01109537E-08
  1 465 1.00870278E-08
  1 466 1.29195917E-08
  1 467 1.00732462E-08
  1 468 1.01071673E-08
  1 469 1.42076114E-08
  1 470 1.33960212E-08
  1 471 1.00719000E-08
  1 472 1.05225798E-08
  1 473 1.12477402E-08
  1 474 1.42116423E-08
  1 475 1.00454082E-08
  1 476 9.41812254E-09
  1 477 1.06608610E-08
  1 478 9.09888106E-09
  1 479 9.10840352E-09
  1 480 1.06392976E-08
  1 481 9.10079451E-09
  1 482 9.47997590E-09
  1 483 9.10309469E-09
  1 484 1.30204647E-08
  1 485 2.42258805E-09
  1 486 9.10066140E-09
  1 487 9.41583400E-09
  1 488 9.41700218E-09
  1 489 9.41716571E-09
  1 490 9.86843218E-09
  1 491 9.50751513E-09
  1 492 9.10446376E-09
  1 493 9.05301457E-09
  1 494 9.80091218E-09
  1 495 9.82327333E-09
  1 496 1.05616649E-08
  1 497 9.95575966E-09
  1 498 1.00140387E-08
  1 499 9.89915593E-09
  1 500 9.90659587E-09
  1 501 9.56175813E-09
  1 502 1.33988945E-08
  1 503 9.80739635E-09
  1 504 9.63697379E-09
  1 505 1.00609661E-08
  1 506 9.77060106E-09
  1 507 9.29261959E-09
  1 508 9.89305261E-09
  1 509 1.17675530E-08
  1 510 9.59161388E-09
  1 511 9.22084322E-09
  1 512 9.47434313E-09
  1 513 9.41785974E-09
  1 514 1.42076446E-08
  1 515 9.89933854E-09
  1 516 1.03498984E-08
  1 517 1.14483665E-08
  1 518 1.08524855E-08
  1 519 1.18316411E-08
  1 520 1.29235520E-08
  1 521 9.52289305E-09
  1 522 1.00276244E-08
  1 523 1.19286998E-08
  1 524 1.25398333E-08
  1 525 8.34068012E-09
  1 526 7.34549974E-09
  1 527 8.08123410E-09
  1 528 1.18277159E-08
  1 529 7.34267500E-09
  1 530 1.19277911E-08
  1 531 9.68431469E-09
  1 532 1.33955240E-08
  1 533 1.29245055E-08
  1 534 1.29241561E-08
  1 535 9.89892364E-09
  1 536 7.35118375E-09
  1 537 9.72466722E-09
  1 538 1.18292742E-08
  1 539 7.34752231E-09
  1 540 8.25242452E-09
  1 541 9.89909609E-09
  1 542 1.18320028E-08
  1 543 9.32379444E-09
  1 544 9.73023210E-09
  1 545 9.09378985E-09
  1 546 1.18324960E-08
  1 547 9.41656820E-09
  1 548 1.29196627E-08
  1 549 7.39464122E-09
  1 550 9.95997233E-09
  1 551 7.35428333E-09
  1 552 1.19290917E-08
  1 553 9.41622784E-09
  1 554 1.16528584E-08
  1 555 1.04926029E-08
  1 556 1.18219404E-08
  1 557 1.18388257E-08
  1 558 1.18402198E-08
  1 559 1.29207874E-08
  1 560 1.29331718E-08
  1 561 1.18328430E-08
  1 562 9.11824092E-09
  1 563 1.19187455E-08
  1 564 1.29213964E-08
  1 565 9.15005972E-09
  1 566 1.19679250E-08
  1 567 1.20416391E-08
  1 568 1.29312132E-08
  1 569 7.34997852E-09
  1 570 1.18774427E-08
  1 571 9.12377785E-09
  1 572 9.53132825E-09
  1 573 1.29307893E-08
  1 574 9.55398857E-09
  1 575 1.29448643E-08
  1 576 1.29545904E-08
  1 577 1.29188045E-08
  1 578 9.10679969E-09
  1 579 1.29596646E-08
  1 580 1.29303165E-08
  1 581 1.29184046E-08
  1 582 1.30089967E-08
  1 583 9.57005881E-09
  1 584 1.30708479E-08
  1 585 1.30270469E-08
  1 586 1.22400110E-08
  1 587 1.30679593E-08
  1 588 9.41749445E-09
  1 589 1.29704290E-08
  1 590 1.18308383E-08
  1 591 1.32148444E-08
  1 592 1.18399491E-08
  1 593 9.57419417E-09
  1 594 9.74798563E-09
  1 595 1.11030198E-08
  1 596 1.12775236E-08
  1 597 1.29312633E-08
  1 598 9.62849219E-09
  1 599 1.14819501E-08
  1 600 9.70839121E-09
  1 601 1.29326929E-08
  1 602 7.33094820E-09
  1 603 7.33119431E-09
  1 604 9.13617727E-09
  1 605 7.33396619E-09
  1 606 7.32643619E-09
  1 607 7.39839854E-09
  1 608 9.60798960E-09
  1 609 1.15807460E-08
  1 610 9.32926363E-09
  1 611 9.25599085E-09
  1 612 7.32794249E-09
  1 613 9.16157873E-09
  1 614 7.41171200E-09
  1 615 7.42194716E-09
  1 616 1.30968397E-08
  1 617 7.38410989E-09
  1 618 9.23776837E-09
  1 619 9.67299844E-09
  1 620 7.44718127E-09
  1 621 7.44042845E-09
  1 622 7.41790247E-09
  1 623 9.50292626E-09
  1 624 9.60026270E-09
  1 625 1.01795114E-08
  1 626 9.71265611E-09
  1 627 8.38919830E-09
  1 628 1.00352299E-08
  1 629 7.46948165E-09
  1 630 9.11277747E-09
  1 631 1.04311040E-08
  1 632 1.29326783E-08
  1 633 1.19227987E-08
  1 634 1.18281685E-08
  1 635 1.18677819E-08
  1 636 1.05324505E-08
  1 637 7.74494690E-09
  1 638 1.33988386E-08
  1 639 1.72294252E-08
  1 640 7.73171476E-09
  1 641 9.41739559E-09
  1 642 1.29178831E-08
  1 643 1.29232667E-08
  1 644 1.71999606E-08
  1 645 1.71997233E-08
  1 646 1.72123176E-08
  1 647 9.08824001E-09
  1 648 1.04912855E-08
  1 649 1.72160641E-08
  1 650 1.29247302E-08
  1 651 1.29213140E-08
  1 652 9.41789734E-09
  1 653 1.72264391E-08
  1 654 1.72287639E-08
  1 655 1.29248402E-08
  1 656 1.72266351E-08
  1 657 1.42092855E-08
  1 658 1.72358997E-08
  1 659 9.55653046E-09
  1 660 1.72265928E-08
  1 661 1.72334360E-08
  1 662 9.83906289E-09
  1 663 9.53976746E-09
  1 664 1.72527490E-08
  1 665 9.63217402E-09
  1 666 1.72375418E-08
  1 667 9.68129084E-09
  1 668 1.72214535E-08
  1 669 1.72306056E-08
  1 670 9.59473811E-09
  1 671 1.29297597E-08
  1 672 1.72299627E-08
  1 673 1.29287109E-08
  1 674 1.72506912E-08
  1 675 1.29256718E-08
  1 676 1.72358507E-08
  1 677 1.29128827E-08
  1 678 1.72558577E-08
  1 679 1.72176012E-08
  1 680 9.18004090E-09
  1 681 1.72453965E-08
  1 682 1.18379191E-08
  1 683 9.16812657E-09
  1 684 9.79256785E-09
  1 685 9.69777578E-09
  1 686 1.72321052E-08
  1 687 1.71769797E-08
  1 688 1.29229819E-08
  1 689 1.29274436E-08
  1 690 9.45990135E-09
  1 691 1.29200973E-08
  1 692 9.51532562E-09
  1 693 9.41885710E-09
  1 694 1.05423015E-08
  1 695 1.05484875E-08
  1 696 1.71980397E-08
  1 697 1.72221293E-08
  1 698 9.74082370E-09
  1 699 1.71975459E-08
  1 700 1.00273336E-08
  1 701 1.71958718E-08
  1 702 1.72129294E-08
  1 703 9.14454571E-09
  1 704 1.72011154E-08
  1 705 1.71756196E-08
  1 706 1.71722713E-08
  1 707 1.30978511E-08
  1 708 1.71951892E-08
  1 709 1.01792679E-08
  1 710 1.71712329E-08
  1 711 1.01803546E-08
  1 712 1.71924589E-08
  1 713 1.71183228E-08
  1 714 1.71775519E-08
  1 715 1.71675098E-08
  1 716 1.72319522E-08
  1 717 1.42073964E-08
  1 718 1.72210906E-08
  1 719 8.86260434E-09
  1 720 8.88857039E-09
  1 721 1.42075601E-08
  1 722 1.05654270E-08
  1 723 1.46692345E-08
  1 724 1.30985620E-08
  1 725 9.89974687E-09
  1 726 8.62442964E-09
  1 727 8.95268426E-09
  1 728 8.91361395E-09
  1 729 9.66649181E-09
  1 730 9.49420204E-09
  1 731 9.44536417E-09
  1 732 9.99774040E-09
  1 733 9.78372477E-09
  1 734 9.11472894E-09
  1 735 9.11556421E-09
  1 736 1.00331936E-08
  1 737 9.32273237E-09
  1 738 9.95635262E-09
  1 739 1.18629290E-08
  1 740 9.89927725E-09
  1 741 9.96646379E-09
  1 742 9.41763947E-09
  1 743 9.80512204E-09
  1 744 9.15904472E-09
  1 745 1.06545029E-08
  1 746 1.05992853E-08
  1 747 1.06105883E-08
  1 748 1.19241181E-08
  1 749 1.06647895E-08
  1 750 1.06141265E-08
  1 751 1.33961816E-08
  1 752 1.30592062E-08
  1 753 1.01400640E-08
  1 754 1.29221958E-08
  1 755 8.88556567E-09
  1 756 1.05583060E-08
  1 757 1.20597409E-08
  1 758 1.07867629E-08
  1 759 1.06760754E-08
  1 760 1.06015386E-08
  1 761 1.08093777E-08
  1 762 1.05624039E-08
  1 763 1.07935149E-08
  1 764 1.71945553E-08
  1 765 1.71279893E-08
  1 766 1.29219566E-08
  1 767 9.67673619E-09
  1 768 1.71268524E-08
  1 769 1.07400744E-08
  1 770 1.72218848E-08
  1 771 9.41818311E-09
  1 772 8.90499512E-09
  1 773 1.73245376E-08
  1 774 1.73389249E-08
  1 775 1.18415761E-08
  1 776 1.07674199E-08
  1 777 1.02429291E-08
  1 778 1.30348389E-08
  1 779 1.29441179E-08
  1 780 9.87492413E-09
  1 781 1.11327009E-08
  1 782 1.18232513E-08
  1 783 9.74288696E-09
  1 784 1.29865781E-08
  1 785 1.30084026E-08
  1 786 1.72256420E-08
  1 787 1.30119003E-08
  1 788 1.35566197E-08
  1 789 1.30587559E-08
  1 790 9.80262308E-09
  1 791 1.29785447E-08
  1 792 9.61608560E-09
  1 793 9.14118066E-09
  1 794 1.29248901E-08
  1 795 1.71688481E-08
  1 796 9.15301552E-09
  1 797 9.89906398E-09
  1 798 1.72158398E-08
  1 799 1.73432446E-08
  1 800 1.29317003E-08
  1 801 1.29229360E-08
  1 802 1.73424279E-08
  1 803 1.05273948E-08
  1 804 1.73461605E-08
  1 805 1.29321886E-08
  1 806 1.16313143E-08
  1 807 1.73860912E-08
  1 808 9.41832328E-09
  1 809 1.73646365E-08
  1 810 1.04962546E-08
  1 811 1.73687357E-08
  1 812 9.41861399E-09
  1 813 9.11276923E-09
  1 814 9.75123376E-09
  1 815 9.09460228E-09
  1 816 1.00650179E-08
  1 817 1.74230880E-08
  1 818 9.41907593E-09
  1 819 1.75414170E-08
  1 820 1.75973631E-08
  1 821 9.41876453E-09
  1 822 1.73659268E-08
  1 823 1.19687884E-08
  1 824 1.74193336E-08
  1 825 1.78134756E-08
  1 826 1.42102957E-08
  1 827 1.78342707E-08
  1 828 1.78187044E-08
  1 829 1.29292778E-08
  1 830 1.78319995E-08
  1 831 9.11124079E-09
  1 832 1.21640249E-08
  1 833 9.80397020E-09
  1 834 1.08659634E-08
  1 835 1.29264808E-08
  1 836 7.57696880E-09
  1 837 9.64812802E-09
  1 838 9.60289177E-09
  1 839 1.29178133E-08
  1 840 9.41891852E-09
  1 841 1.76836222E-08
  1 842 1.78332055E-08
  1 843 1.42074843E-08
  1 844 1.78488639E-08
  1 845 1.19193256E-08
  1 846 1.42081636E-08
  1 847 1.78419604E-08
  1 848 1.29315704E-08
  1 849 1.76594237E-08
  1 850 1.78748274E-08
  1 851 1.02379155E-08
  1 852 1.76299225E-08
  1 853 1.19242591E-08
  1 854 9.12164137E-09
  1 855 1.29240124E-08
  1 856 1.77393853E-08
  1 857 1.77836215E-08
  1 858 1.78389948E-08
  1 859 9.09584145E-09
  1 860 1.77609137E-08
  1 861 1.76475452E-08
  1 862 9.41870326E-09
  1 863 1.76479298E-08
  1 864 9.95269790E-09
  1 865 1.59917138E-08
  1 866 1.33938337E-08
  1 867 9.91570349E-09
  1 868 1.39207782E-08
  1 869 1.29246249E-08
  1 870 1.76374887E-08
  1 871 1.01494958E-08
  1 872 1.76150496E-08
  1 873 1.42797704E-08
  1 874 1.78590654E-08
  1 875 9.03902310E-09
  1 876 1.33461721E-08
  1 877 1.29206577E-08
  1 878 1.30692486E-08
  1 879 1.33061123E-08
  1 880 1.39185087E-08
  1 881 1.29286888E-08
  1 882 9.94246231E-09
  1 883 1.31112048E-08
  1 884 9.13241684E-09
  1 885 1.29210949E-08
  1 886 1.33871056E-08
  1 887 1.33814750E-08
  1 888 1.33778670E-08
  1 889 1.34040525E-08
  1 890 1.29302429E-08
  1 891 1.34295229E-08
  1 892 1.18345484E-08
  1 893 1.33180741E-08
  1 894 9.53620774E-09
  1 895 9.41726160E-09
  1 896 1.34405511E-08
  1 897 1.34142953E-08
  1 898 1.34162497E-08
  1 899 1.29175989E-08
  1 900 1.42081413E-08
  1 901 1.38734509E-08
  1 902 1.18417651E-08
  1 903 1.29222560E-08
  1 904 1.24957688E-08
  1 905 1.29192054E-08
  1 906 1.38901993E-08
  1 907 1.38884962E-08
  1 908 9.79971224E-09
  1 909 1.34127207E-08
  1 910 1.38935154E-08
  1 911 1.34618376E-08
  1 912 1.38986849E-08
  1 913 1.29263462E-08
  1 914 1.29192293E-08
  1 915 1.33928757E-08
  1 916 1.33973826E-08
  1 917 9.65382608E-09
  1 918 1.33950899E-08
  1 919 1.33948279E-08
  1 920 9.77514984E-09
  1 921 1.33967505E-08
  1 922 1.33987388E-08
  1 923 7.37980328E-09
  1 924 1.43643292E-08
  1 925 1.28492623E-08
  1 926 1.34450546E-08
  1 927 1.42813596E-08
  1 928 9.41681254E-09
  1 929 1.42027499E-08
  1 930 1.33953897E-08
  1 931 1.33951242E-08
  1 932 9.41732123E-09
  1 933 1.18346822E-08
  1 934 1.33969196E-08
  1 935 9.54816811E-09
  1 936 1.33982933E-08
  1 937 1.29341470E-08
  1 938 1.33973077E-08
  1 939 1.33969794E-08
  1 940 9.18654590E-09
  1 941 1.33969023E-08
  1 942 1.33952273E-08
  1 943 1.33978259E-08
  1 944 1.33961704E-08
  1 945 1.33975961E-08
  1 946 1.30654813E-08
  1 947 1.33979963E-08
  1 948 1.33956407E-08
  1 949 1.33960230E-08
  1 950 1.42103113E-08
  1 951 9.92911070E-09
  1 952 1.00332885E-08
  1 953 1.23089211E-08
  1 954 1.29185197E-08
  1 955 1.36675053E-08
  1 956 1.73610030E-08
  1 957 1.01975739E-08
  1 958 2.43054321E-09
  1 959 9.08827713E-09
  1 960 9.41712109E-09
  1 961 1.39054348E-08
  1 962 1.39058997E-08
  1 963 1.29186044E-08
  1 964 9.10138579E-09
  1 965 1.39096743E-08
  1 966 9.90218808E-09
  1 967 1.29233468E-08
  1 968 1.39252691E-08
  1 969 1.29182817E-08
  1 970 1.39417449E-08
  1 971 1.39414294E-08
  1 972 1.33973890E-08
  1 973 1.39453879E-08
  1 974 1.29215333E-08
  1 975 1.37935968E-08
  1 976 1.29504505E-08
  1 977 9.80061192E-09
  1 978 1.39899522E-08
  1 979 1.39979999E-08
  1 980 1.39230417E-08
  1 981 1.40086621E-08
  1 982 1.42062846E-08
  1 983 1.39561358E-08
  1 984 1.33977319E-08
  1 985 2.47958293E-09
  1 986 1.36521284E-08
  1 987 1.37283236E-08
  1 988 1.37485712E-08
  1 989 1.36633302E-08
  1 990 1.18169033E-08
  1 991 1.18582737E-08
  1 992 1.37050904E-08
  1 993 1.37293576E-08
  1 994 1.37500979E-08
  1 995 1.36788300E-08
  1 996 9.06156173E-09
  1 997 1.36193531E-08
  1 998 1.36505341E-08
  1 999 1.33978933E-08
  1 1000 1.35878136E-08
  1 1001 1.33943203E-08
  1 1002 2.41594250E-09
  1 1003 1.35914086E-08
  1 1004 1.36256337E-08
  1 1005 1.34798591E-08
  1 1006 1.34900509E-08
  1 1007 1.35438814E-08
  1 1008 1.34636008E-08
  1 1009 1.34660119E-08
  1 1010 1.34491794E-08
  1 1011 1.34350612E-08
  1 1012 1.35680556E-08
  1 1013 1.34434867E-08
  1 1014 1.35498631E-08
  1 1015 1.71811501E-08
  1 1016 1.18299018E-08
  1 1017 1.35488249E-08
  1 1018 1.18261633E-08
  1 1019 9.34871539E-09
  1 1020 2.35786392E-09
  1 1021 1.35640760E-08
  1 1022 9.49797972E-09
  1 1023 2.39266109E-09
  1 1024 2.45028583E-09
  1 1025 1.33975149E-08
  1 1026 7.35641894E-09
  1 1027 1.33669464E-08
  1 1028 7.35329059E-09
  1 1029 1.34160889E-08
  1 1030 1.33973053E-08
  1 1031 2.39447287E-09
  1 1032 1.33224691E-08
  1 1033 1.31485879E-08
  1 1034 1.49430912E-08
  1 1035 1.39013643E-08
  1 1036 1.18371644E-08
  1 1037 9.41775527E-09
  1 1038 1.40126453E-08
  1 1039 1.40445365E-08
  1 1040 1.38983304E-08
  1 1041 1.29200566E-08
  1 1042 1.29190048E-08
  1 1043 1.37795788E-08
  1 1044 9.41618605E-09
  1 1045 1.29225397E-08
  1 1046 1.40344676E-08
  1 1047 1.38111141E-08
  1 1048 1.38449737E-08
  1 1049 9.68455150E-09
  1 1050 1.38480746E-08
  1 1051 1.40384376E-08
  1 1052 9.13179163E-09
  1 1053 1.40218858E-08
  1 1054 1.29298911E-08
  1 1055 1.40279445E-08
  1 1056 1.40245502E-08
  1 1057 1.29218662E-08
  1 1058 1.39168765E-08
  1 1059 1.00338624E-08
  1 1060 1.29199419E-08
  1 1061 1.39040482E-08
  1 1062 9.41603292E-09
  1 1063 1.33987053E-08
  1 1064 1.38321187E-08
  1 1065 1.33989157E-08
  1 1066 1.38724184E-08
  1 1067 9.20194911E-09
  1 1068 9.75554836E-09
  1 1069 1.38134947E-08
  1 1070 1.38644461E-08
  1 1071 9.11977756E-09
  1 1072 1.42067592E-08
  1 1073 1.38383625E-08
  1 1074 1.33966547E-08
  1 1075 1.42076417E-08
  1 1076 9.97009475E-09
  1 1077 1.72003882E-08
  1 1078 1.17811929E-08
  1 1079 9.84821758E-09
  1 1080 1.18788544E-08
  1 1081 1.37060399E-08
  1 1082 1.37751722E-08
  1 1083 9.41923679E-09
  1 1084 1.33199397E-08
  1 1085 1.33869873E-08
  1 1086 9.70494568E-09
  1 1087 1.33707248E-08
  1 1088 1.05756781E-08
  1 1089 1.33982025E-08
  1 1090 9.41975478E-09
  1 1091 1.37326180E-08
  1 1092 9.22635607E-09
  1 1093 1.37922919E-08
  1 1094 1.37791201E-08
  1 1095 1.04744111E-08
  1 1096 1.38072324E-08
  1 1097 1.71969419E-08
  1 1098 9.12791844E-09
  1 1099 7.42135806E-09
  1 1100 1.38202372E-08
  1 1101 7.43761033E-09
  1 1102 1.01759589E-08
  1 1103 1.31674257E-08
  1 1104 1.31911250E-08
  1 1105 1.72110077E-08
  1 1106 1.33971011E-08
  1 1107 1.32198786E-08
  1 1108 9.30343937E-09
  1 1109 9.85535228E-09
  1 1110 9.20834782E-09
  1 1111 1.31619652E-08
  1 1112 1.38275994E-08
  1 1113 1.18319536E-08
  1 1114 1.00302174E-08
  1 1115 1.34543927E-08
  1 1116 7.36592060E-09
  1 1117 1.33986464E-08
  1 1118 1.30995295E-08
  1 1119 1.72488857E-08
  1 1120 1.31001179E-08
  1 1121 1.01774787E-08
  1 1122 9.62414690E-09
  1 1123 1.30948605E-08
  1 1124 1.31723422E-08
  1 1125 1.29397775E-08
  1 1126 1.30554447E-08
  1 1127 9.99820813E-09
  1 1128 1.72268409E-08
  1 1129 1.28850261E-08
  1 1130 1.00303486E-08
  1 1131 1.29139397E-08
  1 1132 1.30804452E-08
  1 1133 1.31766144E-08
  1 1134 1.28507653E-08
  1 1135 7.40157509E-09
  1 1136 1.30817547E-08
  1 1137 9.43176656E-09
  1 1138 1.30371872E-08
  1 1139 1.29860602E-08
  1 1140 9.41865746E-09
  1 1141 1.30260860E-08
  1 1142 9.41846692E-09
  1 1143 1.16204583E-08
  1 1144 1.28077726E-08
  1 1145 1.33985878E-08
  1 1146 9.35998432E-09
  1 1147 1.26578317E-08
  1 1148 1.01781526E-08
  1 1149 1.27543396E-08
  1 1150 1.29964188E-08
  1 1151 1.02305668E-08
  1 1152 9.98052194E-09
  1 1153 1.28646580E-08
  1 1154 1.33988111E-08
  1 1155 1.26858871E-08
  1 1156 1.27537157E-08
  1 1157 1.00399927E-08
  1 1158 1.26108316E-08
  1 1159 1.29132713E-08
  1 1160 1.33990702E-08
  1 1161 1.24585202E-08
  1 1162 1.17022373E-08
  1 1163 1.33969908E-08
  1 1164 1.26398540E-08
  1 1165 1.25376994E-08
  1 1166 1.23899255E-08
  1 1167 1.33645350E-08
  1 1168 1.24606071E-08
  1 1169 1.23540013E-08
  1 1170 1.26948211E-08
  1 1171 1.40556396E-08
  1 1172 9.98853359E-09
  1 1173 9.80176153E-09
  1 1174 1.24157274E-08
  1 1175 1.15545835E-08
  1 1176 1.18371580E-08
  1 1177 9.93339365E-09
  1 1178 9.76903826E-09
  1 1179 1.22883461E-08
  1 1180 1.25001114E-08
  1 1181 1.21766793E-08
  1 1182 9.72852966E-09
  1 1183 1.21097073E-08
  1 1184 9.19053268E-09
  1 1185 1.21296721E-08
  1 1186 1.20827309E-08
  1 1187 1.21055550E-08
  1 1188 1.31012609E-08
  1 1189 1.22631937E-08
  1 1190 9.98720266E-09
  1 1191 1.29269805E-08
  1 1192 7.42508051E-09
  1 1193 1.32580178E-08
  1 1194 9.89952950E-09
  1 1195 1.19265095E-08
  1 1196 1.34555782E-08
  1 1197 1.19015703E-08
  1 1198 1.33984011E-08
  1 1199 1.34636455E-08
  1 1200 1.19197347E-08
  1 1201 1.18339160E-08
  1 1202 7.42721656E-09
  1 1203 1.16544179E-08
  1 1204 1.18529015E-08
  1 1205 1.01798610E-08
  1 1206 1.00227041E-08
  1 1207 1.16049556E-08
  1 1208 9.28413216E-09
  1 1209 1.15937611E-08
  1 1210 9.92002288E-09
  1 1211 1.17630686E-08
  1 1212 9.17570738E-09
  1 1213 9.17022757E-09
  1 1214 1.15419017E-08
  1 1215 1.29244429E-08
  1 1216 1.09580823E-08
  1 1217 1.29220986E-08
  1 1218 1.29195077E-08
  1 1219 1.16040322E-08
  1 1220 1.29189513E-08
  1 1221 1.00443925E-08
  1 1222 1.02240810E-08
  1 1223 1.00548912E-08
  1 1224 1.02361127E-08
  1 1225 1.00367530E-08
  1 1226 9.61141473E-09
  1 1227 1.02209286E-08
  1 1228 1.00356871E-08
  1 1229 9.99939433E-09
  1 1230 1.02567463E-08
  1 1231 1.01262681E-08
  1 1232 9.58654838E-09
  1 1233 1.29333990E-08
  1 1234 1.29350507E-08
  1 1235 1.29298448E-08
  1 1236 1.29585619E-08
  1 1237 7.33136868E-09
  1 1238 1.30358282E-08
  1 1239 1.29629810E-08
  1 1240 1.20351183E-08
  1 1241 1.29440078E-08
  1 1242 1.38108862E-08
  1 1243 1.29808330E-08
  1 1244 1.29370897E-08
  1 1245 1.29894303E-08
  1 1246 1.01698816E-08
  1 1247 9.89872295E-09
  1 1248 1.29742670E-08
  1 1249 1.01783992E-08
  1 1250 1.20292562E-08
  1 1251 9.10383289E-09
  1 1252 1.02176979E-08
  1 1253 1.01674097E-08
  1 1254 1.02053298E-08
  1 1255 1.01898687E-08
  1 1256 1.32068928E-08
  1 1257 1.01679119E-08
  1 1258 1.31185920E-08
  1 1259 1.26055569E-08
  1 1260 1.29317386E-08
  1 1261 9.91080713E-09
  1 1262 1.05759840E-08
  1 1263 7.32899182E-09
  1 1264 1.00331708E-08
  1 1265 7.77191549E-09
  1 1266 1.73427258E-08
  1 1267 1.33959328E-08
  1 1268 1.02146251E-08
  1 1269 9.99852403E-09
  1 1270 1.31505541E-08
  1 1271 1.18503436E-08
  1 1272 1.02149121E-08
  1 1273 1.29482039E-08
  1 1274 1.18264411E-08
  1 1275 9.09656633E-09
  1 1276 9.58292455E-09
  1 1277 1.42799162E-08
  1 1278 1.33979415E-08
  1 1279 7.36096138E-09
  1 1280 1.42070246E-08
  1 1281 1.29452486E-08
  1 1282 7.55431474E-09
  1 1283 1.32607579E-08
  1 1284 1.33751647E-08
  1 1285 9.71485709E-09
  1 1286 9.41531812E-09
  1 1287 9.42722849E-09