# File generated by Flopy version 3.9.1 on 01/19/2026 at 23:12:06.
BEGIN options
  FIXED_CELL
  PRINT_FLOWS
  SAVE_FLOWS
END options

BEGIN dimensions
  MAXBOUND  13822
END dimensions

BEGIN period  1
  1 5.70843774E-09
  2 5.68543242E-09
  3 5.69991006E-09
  4 5.72089665E-09
  5 5.65813948E-09
  6 5.65727256E-09
  7 5.63272035E-09
  8 5.61283420E-09
  9 5.58673093E-09
  10 5.68021403E-09
  11 5.69294795E-09
  12 5.72313086E-09
  13 5.76963911E-09
  14 5.62717351E-09
  15 5.64081543E-09
  16 5.58085461E-09
  17 5.59540818E-09
  18 5.67307886E-09
  19 5.72270319E-09
  20 5.62975613E-09
  21 5.68249159E-09
  22 5.83082931E-09
  23 5.90467475E-09
  24 5.78785246E-09
  25 5.86627470E-09
  26 5.75157419E-09
  27 5.83451489E-09
  28 5.95547835E-09
  29 6.05290243E-09
  30 5.92857844E-09
  31 6.03097608E-09
  32 6.19697053E-09
  33 6.17810777E-09
  34 6.29631795E-09
  35 6.41570168E-09
  36 6.53433705E-09
  37 6.65066534E-09
  38 6.76347092E-09
  39 6.87184571E-09
  40 6.97514608E-09
  41 7.07294768E-09
  42 7.16500238E-09
  43 7.25119931E-09
  44 7.31835044E-09
  45 7.39274604E-09
  46 7.46149412E-09
  47 7.52474762E-09
  48 7.58268121E-09
  49 6.20932526E-09
  50 6.35363588E-09
  51 6.22795112E-09
  52 5.96489692E-09
  53 5.86790837E-09
  54 5.77295077E-09
  55 5.85575093E-09
  56 5.75649299E-09
  57 6.08648253E-09
  58 5.96697128E-09
  59 6.10245323E-09
  60 5.97994150E-09
  61 5.85393481E-09
  62 5.75082201E-09
  63 5.86368613E-09
  64 5.75731224E-09
  65 5.69086553E-09
  66 5.62458841E-09
  67 5.67045831E-09
  68 5.60083749E-09
  69 5.57666773E-09
  70 5.54903841E-09
  71 5.55041703E-09
  72 5.52132220E-09
  73 5.66120181E-09
  74 5.58851457E-09
  75 5.66460486E-09
  76 5.58924076E-09
  77 5.53578359E-09
  78 5.50532554E-09
  79 5.53447124E-09
  80 5.50279962E-09
  81 5.54283632E-09
  82 5.55828541E-09
  83 5.51480400E-09
  84 5.53110869E-09
  85 5.59467850E-09
  86 5.65045523E-09
  87 5.56945541E-09
  88 5.62812597E-09
  89 5.49850819E-09
  90 5.51560105E-09
  91 5.49570871E-09
  92 5.51349175E-09
  93 5.55574947E-09
  94 5.61707700E-09
  95 5.55522254E-09
  96 5.61887096E-09
  97 5.72336189E-09
  98 5.81066426E-09
  99 5.70464860E-09
  100 5.79604091E-09
  101 5.90937826E-09
  102 6.04733846E-09
  103 5.89907044E-09
  104 6.04033987E-09
  105 5.69689465E-09
  106 5.79197543E-09
  107 5.70153845E-09
  108 5.79976497E-09
  109 5.92157001E-09
  110 6.04342937E-09
  111 5.93263708E-09
  112 6.05761827E-09
  113 6.16681929E-09
  114 6.28946111E-09
  115 6.16406388E-09
  116 6.29061552E-09
  117 6.41287779E-09
  118 6.53508558E-09
  119 6.41751712E-09
  120 6.54273717E-09
  121 6.17076830E-09
  122 6.30056886E-09
  123 6.18779173E-09
  124 6.32003838E-09
  125 6.43027925E-09
  126 6.55783638E-09
  127 6.45175302E-09
  128 6.58085880E-09
  129 6.65450050E-09
  130 6.76990982E-09
  131 6.66467940E-09
  132 6.78214503E-09
  133 6.88042829E-09
  134 6.98544774E-09
  135 6.89428046E-09
  136 7.00051955E-09
  137 6.68164553E-09
  138 6.80053298E-09
  139 6.70577685E-09
  140 6.82536902E-09
  141 6.91368489E-09
  142 7.02058254E-09
  143 6.93886827E-09
  144 7.04580716E-09
  145 7.08458620E-09
  146 7.17764032E-09
  147 7.10052702E-09
  148 7.19414677E-09
  149 7.26454330E-09
  150 7.33239163E-09
  151 7.26882599E-09
  152 7.34952081E-09
  153 7.12094034E-09
  154 7.21465055E-09
  155 7.14595125E-09
  156 7.23924060E-09
  157 7.28941477E-09
  158 7.36980691E-09
  159 7.31361025E-09
  160 7.39328867E-09
  161 7.40702086E-09
  162 7.47582093E-09
  163 7.42405493E-09
  164 7.49261016E-09
  165 7.53897328E-09
  166 7.59667658E-09
  167 7.55539450E-09
  168 7.61262847E-09
  169 7.44389616E-09
  170 7.51189336E-09
  171 7.46656638E-09
  172 7.53367969E-09
  173 7.57403031E-09
  174 7.63054649E-09
  175 7.59488061E-09
  176 7.65042406E-09
  177 7.64913637E-09
  178 7.69655768E-09
  179 7.66453510E-09
  180 7.71133305E-09
  181 7.75323200E-09
  182 7.79042997E-09
  183 7.68167963E-09
  184 7.72765929E-09
  185 7.70055908E-09
  186 7.74552296E-09
  187 7.76870273E-09
  188 7.80501278E-09
  189 7.78553769E-09
  190 7.82080818E-09
  191 7.83677694E-09
  192 7.86416783E-09
  193 7.85152190E-09
  194 7.87784955E-09
  195 7.89994669E-09
  196 7.91795605E-09
  197 7.79426462E-09
  198 7.79013896E-09
  199 7.74495655E-09
  200 7.78400614E-09
  201 7.75585193E-09
  202 7.73237323E-09
  203 7.71685848E-09
  204 7.74494281E-09
  205 7.73116485E-09
  206 7.69810621E-09
  207 7.71421115E-09
  208 7.69376954E-09
  209 7.66952248E-09
  210 7.64114671E-09
  211 7.16387724E-09
  212 6.98082340E-09
  213 6.87828736E-09
  214 6.50814289E-09
  215 6.66738787E-09
  216 6.54766191E-09
  217 6.38366478E-09
  218 6.25665593E-09
  219 6.42328593E-09
  220 6.29598171E-09
  221 6.71421984E-09
  222 6.59596635E-09
  223 6.76881378E-09
  224 6.65308891E-09
  225 6.47276994E-09
  226 6.34630244E-09
  227 6.53221339E-09
  228 6.40779435E-09
  229 6.12941103E-09
  230 6.00478147E-09
  231 6.16803361E-09
  232 6.04231666E-09
  233 5.88613672E-09
  234 5.77724986E-09
  235 5.92226640E-09
  236 5.81176805E-09
  237 6.21881450E-09
  238 6.09317378E-09
  239 6.28202550E-09
  240 6.15773452E-09
  241 5.97284395E-09
  242 5.86177935E-09
  243 6.03837148E-09
  244 5.92791058E-09
  245 5.68209553E-09
  246 5.60456409E-09
  247 5.71494997E-09
  248 5.63588315E-09
  249 5.54811728E-09
  250 5.51543340E-09
  251 5.57821247E-09
  252 5.54477156E-09
  253 5.76421696E-09
  254 5.68436502E-09
  255 5.83064385E-09
  256 5.75086352E-09
  257 5.63666636E-09
  258 5.50810447E-09
  259 5.52644718E-09
  260 5.53725109E-09
  261 5.55599008E-09
  262 5.61306577E-09
  263 5.58447078E-09
  264 5.60341127E-09
  265 5.65076078E-09
  266 5.66968031E-09
  267 5.70975123E-09
  268 5.78375752E-09
  269 5.95660237E-09
  270 6.08381049E-09
  271 5.99436772E-09
  272 6.12275462E-09
  273 5.90239067E-09
  274 6.04661722E-09
  275 6.17499642E-09
  276 6.11376434E-09
  277 6.24083535E-09
  278 6.21588674E-09
  279 6.34963797E-09
  280 6.25565888E-09
  281 6.38984470E-09
  282 6.48242912E-09
  283 6.61218859E-09
  284 6.52267294E-09
  285 6.65209678E-09
  286 6.30752756E-09
  287 6.44096722E-09
  288 6.37169114E-09
  289 6.50311836E-09
  290 6.57269945E-09
  291 6.70072169E-09
  292 6.63255221E-09
  293 6.75805304E-09
  294 6.73736753E-09
  295 6.85687288E-09
  296 6.77661088E-09
  297 6.89517534E-09
  298 6.96998983E-09
  299 7.07630440E-09
  300 7.00713116E-09
  301 7.11211793E-09
  302 6.82358433E-09
  303 6.94030688E-09
  304 6.87823766E-09
  305 6.99218915E-09
  306 7.05028766E-09
  307 7.15321790E-09
  308 7.09936254E-09
  309 7.19949671E-09
  310 7.17563282E-09
  311 7.25621807E-09
  312 7.21000022E-09
  313 7.28921330E-09
  314 7.34143458E-09
  315 7.41997159E-09
  316 7.37286794E-09
  317 7.44982561E-09
  318 7.23778540E-09
  319 7.32625637E-09
  320 7.28142482E-09
  321 7.36723542E-09
  322 7.40784618E-09
  323 7.48278345E-09
  324 7.44625967E-09
  325 7.51874002E-09
  326 7.49205904E-09
  327 7.55795426E-09
  328 7.52033761E-09
  329 7.58467691E-09
  330 7.61792501E-09
  331 7.67223754E-09
  332 7.64312200E-09
  333 7.69594568E-09
  334 7.55133444E-09
  335 7.61378160E-09
  336 7.58495043E-09
  337 7.64517622E-09
  338 7.67040850E-09
  339 7.72148943E-09
  340 7.69969995E-09
  341 7.74879198E-09
  342 7.72114832E-09
  343 7.76489886E-09
  344 7.74340764E-09
  345 7.78574974E-09
  346 7.80371264E-09
  347 7.83779383E-09
  348 7.82319356E-09
  349 7.85593947E-09
  350 7.76728264E-09
  351 7.80802635E-09
  352 7.79270441E-09
  353 7.83166760E-09
  354 7.84393666E-09
  355 7.87520702E-09
  356 7.86588857E-09
  357 7.89555073E-09
  358 7.86732725E-09
  359 7.89247939E-09
  360 7.88416697E-09
  361 7.90803597E-09
  362 7.91340030E-09
  363 7.93022619E-09
  364 7.92768890E-09
  365 7.94325353E-09
  366 7.90200888E-09
  367 7.92449319E-09
  368 7.92081477E-09
  369 7.94182032E-09
  370 7.94279267E-09
  371 7.95702477E-09
  372 7.95868834E-09
  373 7.97152420E-09
  374 7.94308260E-09
  375 7.95208831E-09
  376 7.95484637E-09
  377 7.96257672E-09
  378 7.96655128E-09
  379 7.96729527E-09
  380 7.97370249E-09
  381 7.98042136E-09
  382 7.98546568E-09
  383 7.97634210E-09
  384 7.97531257E-09
  385 7.98674047E-09
  386 7.98433210E-09
  387 7.97072116E-09
  388 7.97833631E-09
  389 7.96886511E-09
  390 7.95605405E-09
  391 7.74200098E-09
  392 7.74997791E-09
  393 7.75343115E-09
  394 7.77854913E-09
  395 7.78287917E-09
  396 7.76444248E-09
  397 7.76872025E-09
  398 7.75744462E-09
  399 7.76205046E-09
  400 7.77339524E-09
  401 7.77840346E-09
  402 7.76723375E-09
  403 7.77293213E-09
  404 7.79335815E-09
  405 7.78727049E-09
  406 7.79158083E-09
  407 7.79630282E-09
  408 7.79864719E-09
  409 7.79563332E-09
  410 7.79921989E-09
  411 7.78363841E-09
  412 7.78895331E-09
  413 7.77903699E-09
  414 7.78539609E-09
  415 7.79416430E-09
  416 7.79905459E-09
  417 7.79181749E-09
  418 7.79807436E-09
  419 7.80016472E-09
  420 7.80060640E-09
  421 7.80210534E-09
  422 7.80403156E-09
  423 7.79970441E-09
  424 7.79717575E-09
  425 7.80472193E-09
  426 7.80388548E-09
  427 7.80337918E-09
  428 7.80686986E-09
  429 7.80391058E-09
  430 7.80904662E-09
  431 7.80924035E-09
  432 7.81019111E-09
  433 7.81318542E-09
  434 7.81601804E-09
  435 7.79272552E-09
  436 7.76672119E-09
  437 7.80122074E-09
  438 7.77748424E-09
  439 7.75760714E-09
  440 7.74569711E-09
  441 7.77028384E-09
  442 7.76036970E-09
  443 7.80941373E-09
  444 7.78806094E-09
  445 7.81722868E-09
  446 7.79837284E-09
  447 7.78613700E-09
  448 7.73068490E-09
  449 7.71226112E-09
  450 7.74743771E-09
  451 7.73118310E-09
  452 7.69011297E-09
  453 7.66392369E-09
  454 7.71130020E-09
  455 7.68748169E-09
  456 7.76437749E-09
  457 7.75043686E-09
  458 7.78141171E-09
  459 7.76992221E-09
  460 7.73297758E-09
  461 7.71170453E-09
  462 7.75503547E-09
  463 7.73647126E-09
  464 7.63337180E-09
  465 7.59813049E-09
  466 7.65941758E-09
  467 7.62679421E-09
  468 7.58929364E-09
  469 7.54659384E-09
  470 7.68632258E-09
  471 7.65653522E-09
  472 7.71395245E-09
  473 7.68720340E-09
  474 7.62204348E-09
  475 7.58254557E-09
  476 7.65594850E-09
  477 7.61991126E-09
  478 7.40357318E-09
  479 7.49837042E-09
  480 7.44430062E-09
  481 7.35895532E-09
  482 7.28888435E-09
  483 7.40325975E-09
  484 7.33690076E-09
  485 7.53773784E-09
  486 7.48731783E-09
  487 7.57881461E-09
  488 7.53238296E-09
  489 7.45027645E-09
  490 7.38811238E-09
  491 7.49972854E-09
  492 7.44220578E-09
  493 7.21176855E-09
  494 7.12741522E-09
  495 7.26370979E-09
  496 7.18348938E-09
  497 7.03574388E-09
  498 6.93683866E-09
  499 7.09614446E-09
  500 7.00173231E-09
  501 7.31940121E-09
  502 7.24395037E-09
  503 7.37848842E-09
  504 7.30839831E-09
  505 7.16165978E-09
  506 7.07256878E-09
  507 7.23184012E-09
  508 7.14884447E-09
  509 6.83101476E-09
  510 6.71889911E-09
  511 6.90052695E-09
  512 6.79309817E-09
  513 6.60152213E-09
  514 6.48041327E-09
  515 6.68040281E-09
  516 6.56388158E-09
  517 6.97691725E-09
  518 6.87522159E-09
  519 7.05962491E-09
  520 6.96464932E-09
  521 6.76226432E-09
  522 6.35768687E-09
  523 6.23609742E-09
  524 6.44554845E-09
  525 6.32805204E-09
  526 6.11014087E-09
  527 6.54437111E-09
  528 6.32478144E-09
  529 6.22392190E-09
  530 6.44845502E-09
  531 6.35344204E-09
  532 5.92187681E-09
  533 5.80831869E-09
  534 6.13456616E-09
  535 6.06086237E-09
  536 6.26913586E-09
  537 6.19949163E-09
  538 6.00662511E-09
  539 5.97488621E-09
  540 6.14816121E-09
  541 6.11805757E-09
  542 5.79309671E-09
  543 5.87920478E-09
  544 5.96749078E-09
  545 5.98483473E-09
  546 6.11096066E-09
  547 6.12725962E-09
  548 6.14803568E-09
  549 6.07315922E-09
  550 6.30316565E-09
  551 6.19722491E-09
  552 6.29538409E-09
  553 6.33358937E-09
  554 6.42601458E-09
  555 6.40383195E-09
  556 6.51857718E-09
  557 6.52804331E-09
  558 6.63590192E-09
  559 6.55391806E-09
  560 6.70208812E-09
  561 6.82392117E-09
  562 6.78096972E-09
  563 6.89799237E-09
  564 6.74711565E-09
  565 6.86866598E-09
  566 6.97977114E-09
  567 6.96446208E-09
  568 7.06860957E-09
  569 6.94038555E-09
  570 7.05063002E-09
  571 7.00970518E-09
  572 7.11532271E-09
  573 7.23176890E-09
  574 7.08573932E-09
  575 7.18584931E-09
  576 7.16790507E-09
  577 7.26168865E-09
  578 7.34674397E-09
  579 7.32939570E-09
  580 7.41198370E-09
  581 7.38145603E-09
  582 7.46028087E-09
  583 7.48795334E-09
  584 7.55755261E-09
  585 7.53272799E-09
  586 7.59904225E-09
  587 7.50340311E-09
  588 7.63616861E-09
  589 7.62105549E-09
  590 7.67874310E-09
  591 7.65948969E-09
  592 7.71434011E-09
  593 7.73089075E-09
  594 7.77775932E-09
  595 7.76385522E-09
  596 7.80828098E-09
  597 7.74676606E-09
  598 7.79844899E-09
  599 7.84023119E-09
  600 7.83451069E-09
  601 7.87347025E-09
  602 7.81958993E-09
  603 7.85660093E-09
  604 7.84784275E-09
  605 7.88274284E-09
  606 7.88898665E-09
  607 7.91691742E-09
  608 7.91315944E-09
  609 7.93924685E-09
  610 7.87735395E-09
  611 7.90999967E-09
  612 7.90800315E-09
  613 7.93826838E-09
  614 7.93832718E-09
  615 7.96247205E-09
  616 7.96440247E-09
  617 7.98651981E-09
  618 7.94054054E-09
  619 7.95998207E-09
  620 7.96113650E-09
  621 7.97893881E-09
  622 7.97534929E-09
  623 7.98673379E-09
  624 7.99274556E-09
  625 8.00263304E-09
  626 7.98254757E-09
  627 7.99864659E-09
  628 8.00471357E-09
  629 8.01905736E-09
  630 8.01084384E-09
  631 8.01919895E-09
  632 8.02960748E-09
  633 8.03640581E-09
  634 7.99421521E-09
  635 7.99786567E-09
  636 8.00866578E-09
  637 8.01090094E-09
  638 7.99775488E-09
  639 7.99395595E-09
  640 8.00939355E-09
  641 8.00420249E-09
  642 8.02376017E-09
  643 8.02456871E-09
  644 8.03948334E-09
  645 8.03886456E-09
  646 8.02166404E-09
  647 8.01508993E-09
  648 8.03457263E-09
  649 8.02663558E-09
  650 7.98655200E-09
  651 7.97564336E-09
  652 7.99539726E-09
  653 7.98306553E-09
  654 7.96135535E-09
  655 7.94384634E-09
  656 7.96732135E-09
  657 7.94831377E-09
  658 8.00490144E-09
  659 7.99117275E-09
  660 8.01509336E-09
  661 8.00000599E-09
  662 7.97400577E-09
  663 7.95353926E-09
  664 7.98146250E-09
  665 7.95959056E-09
  666 7.92623549E-09
  667 7.90133112E-09
  668 7.92995814E-09
  669 7.90350238E-09
  670 7.93456633E-09
  671 7.90662413E-09
  672 7.87447495E-09
  673 7.84324781E-09
  674 7.87606503E-09
  675 7.84326361E-09
  676 7.80867173E-09
  677 7.77361907E-09
  678 7.73725920E-09
  679 7.46420530E-09
  680 7.47917126E-09
  681 7.45169331E-09
  682 7.43723088E-09
  683 7.45654325E-09
  684 7.46866725E-09
  685 7.70019055E-09
  686 7.47326911E-09
  687 7.69864519E-09
  688 7.70926685E-09
  689 7.71490588E-09
  690 7.72647483E-09
  691 7.71899274E-09
  692 7.72182640E-09
  693 7.70692380E-09
  694 7.71172533E-09
  695 7.70453152E-09
  696 7.70838536E-09
  697 7.71490566E-09
  698 7.71679118E-09
  699 7.71054326E-09
  700 7.71136060E-09
  701 7.72920645E-09
  702 7.73128465E-09
  703 7.72371403E-09
  704 7.72493805E-09
  705 7.73319434E-09
  706 7.73498070E-09
  707 7.72607451E-09
  708 7.72716548E-09
  709 7.71771871E-09
  710 7.71802884E-09
  711 7.71120588E-09
  712 7.71045351E-09
  713 7.71822593E-09
  714 7.71851432E-09
  715 7.70962115E-09
  716 7.70899352E-09
  717 7.73688443E-09
  718 7.73911879E-09
  719 7.72848070E-09
  720 7.73026068E-09
  721 7.74186261E-09
  722 7.74525403E-09
  723 7.73270870E-09
  724 7.73598365E-09
  725 7.71914230E-09
  726 7.72038028E-09
  727 7.70882963E-09
  728 7.70943275E-09
  729 7.72245844E-09
  730 7.72555850E-09
  731 7.71106265E-09
  732 7.71392606E-09
  733 7.74938537E-09
  734 7.75429933E-09
  735 7.74019420E-09
  736 7.74539447E-09
  737 7.75998696E-09
  738 7.76638730E-09
  739 7.75158170E-09
  740 7.75869604E-09
  741 7.72677134E-09
  742 7.74061080E-09
  743 7.77338894E-09
  744 7.78083311E-09
  745 7.76662235E-09
  746 7.77519405E-09
  747 7.79070948E-09
  748 7.75930323E-09
  749 7.78141863E-09
  750 7.80712043E-09
  751 7.82095430E-09
  752 7.80477798E-09
  753 7.82674734E-09
  754 7.82962899E-09
  755 7.81289041E-09
  756 7.84453867E-09
  757 7.83850574E-09
  758 7.80353806E-09
  759 7.78192999E-09
  760 7.83986965E-09
  761 7.83006802E-09
  762 7.74603286E-09
  763 7.69083079E-09
  764 7.65848832E-09
  765 7.72650662E-09
  766 7.69806534E-09
  767 7.80740625E-09
  768 7.77045323E-09
  769 7.62380123E-09
  770 7.55357033E-09
  771 7.71796667E-09
  772 7.66872860E-09
  773 7.44278262E-09
  774 7.30912488E-09
  775 7.58272739E-09
  776 7.47836233E-09
  777 7.15302023E-09
  778 6.97793708E-09
  779 7.35627855E-09
  780 7.21937783E-09
  781 6.79269365E-09
  782 6.58448662E-09
  783 6.49655278E-09
  784 6.73137173E-09
  785 6.65162902E-09
  786 7.07457609E-09
  787 6.88737671E-09
  788 6.81678061E-09
  789 7.05060826E-09
  790 6.98993110E-09
  791 6.41843003E-09
  792 6.35380930E-09
  793 6.58071681E-09
  794 6.52199605E-09
  795 6.30611036E-09
  796 6.27807008E-09
  797 6.47858980E-09
  798 6.45300502E-09
  799 6.81833784E-09
  800 6.74701044E-09
  801 6.27136760E-09
  802 6.28637791E-09
  803 6.44678637E-09
  804 6.46028746E-09
  805 6.35470001E-09
  806 6.41137702E-09
  807 6.53008869E-09
  808 6.58141407E-09
  809 6.77924897E-09
  810 6.71730444E-09
  811 6.76262589E-09
  812 6.91371712E-09
  813 6.95251344E-09
  814 6.48428924E-09
  815 6.56978935E-09
  816 6.64748770E-09
  817 6.72499760E-09
  818 6.66414325E-09
  819 6.76385511E-09
  820 6.81055823E-09
  821 6.90100572E-09
  822 6.82105380E-09
  823 6.88966969E-09
  824 7.00265282E-09
  825 7.06165743E-09
  826 7.08259673E-09
  827 6.97759151E-09
  828 7.06747776E-09
  829 7.16372343E-09
  830 7.17669316E-09
  831 7.26421396E-09
  832 7.23571822E-09
  833 7.38660233E-09
  834 7.34320174E-09
  835 7.41319449E-09
  836 7.48877980E-09
  837 7.49062781E-09
  838 7.55964871E-09
  839 7.52668685E-09
  840 7.64157179E-09
  841 7.62260932E-09
  842 7.73654033E-09
  843 7.75042548E-09
  844 7.84334554E-09
  845 7.83143786E-09
  846 7.90870027E-09
  847 7.92098114E-09
  848 7.98408704E-09
  849 7.96955537E-09
  850 8.01494697E-09
  851 8.03331123E-09
  852 8.06910006E-09
  853 8.04550773E-09
  854 8.06158189E-09
  855 8.09166544E-09
  856 8.10099217E-09
  857 8.06328840E-09
  858 8.05062922E-09
  859 8.09688387E-09
  860 8.07905696E-09
  861 8.02600026E-09
  862 8.00960479E-09
  863 8.03764674E-09
  864 8.02000595E-09
  865 7.98974419E-09
  866 7.96653431E-09
  867 7.99890058E-09
  868 7.97443419E-09
  869 8.04729839E-09
  870 8.00897689E-09
  871 7.98334887E-09
  872 8.02001193E-09
  873 7.99332998E-09
  874 7.94014178E-09
  875 7.91079424E-09
  876 7.94676312E-09
  877 7.91610743E-09
  878 7.87878972E-09
  879 7.84450405E-09
  880 7.88276095E-09
  881 7.84709940E-09
  882 7.95450354E-09
  883 7.92265255E-09
  884 7.96342837E-09
  885 7.93050970E-09
  886 7.88808440E-09
  887 7.85117325E-09
  888 7.89485608E-09
  889 7.85776912E-09
  890 7.80839533E-09
  891 7.77192419E-09
  892 7.81044762E-09
  893 7.77180985E-09
  894 7.73400322E-09
  895 7.69604212E-09
  896 7.73244094E-09
  897 7.69304536E-09
  898 7.81338544E-09
  899 7.77344024E-09
  900 7.81806709E-09
  901 7.77696739E-09
  902 7.73275706E-09
  903 7.69205803E-09
  904 7.73512334E-09
  905 7.69327173E-09
  906 7.65877660E-09
  907 7.65438367E-09
  908 7.61724824E-09
  909 7.58243353E-09
  910 7.55070281E-09
  911 7.65212582E-09
  912 7.61377831E-09
  913 7.65221406E-09
  914 7.61279035E-09
  915 7.57783731E-09
  916 7.54509342E-09
  917 7.57584649E-09
  918 7.54219735E-09
  919 7.51626998E-09
  920 7.49198923E-09
  921 7.51258888E-09
  922 7.48766245E-09
  923 7.47274424E-09
  924 7.46792517E-09
  925 7.45372899E-09
  926 7.44526035E-09
  927 7.44254104E-09
  928 7.44543926E-09
  929 7.42613140E-09
  930 7.38493839E-09
  931 7.40709059E-09
  932 7.43216876E-09
  933 7.41361868E-09
  934 7.43860381E-09
  935 7.44248407E-09
  936 7.46160714E-09
  937 7.44803046E-09
  938 7.46689158E-09
  939 7.47801168E-09
  940 7.69716982E-09
  941 7.48289723E-09
  942 7.69578545E-09
  943 7.45388275E-09
  944 7.47240496E-09
  945 7.46005578E-09
  946 7.47815831E-09
  947 7.68906085E-09
  948 7.69451925E-09
  949 7.68907862E-09
  950 7.69340585E-09
  951 7.70210215E-09
  952 7.70489398E-09
  953 7.69965386E-09
  954 7.70126625E-09
  955 7.70313429E-09
  956 7.69609315E-09
  957 7.69143423E-09
  958 7.69920525E-09
  959 7.69408721E-09
  960 7.68162326E-09
  961 7.67072985E-09
  962 7.69105900E-09
  963 7.69272631E-09
  964 7.66337902E-09
  965 7.66225303E-09
  966 7.70105136E-09
  967 7.71683248E-09
  968 7.67001755E-09
  969 7.68772355E-09
  970 7.74284777E-09
  971 7.79864957E-09
  972 7.82946849E-09
  973 7.78868253E-09
  974 7.82904956E-09
  975 7.87693917E-09
  976 7.89843601E-09
  977 7.89547100E-09
  978 7.81013825E-09
  979 7.78801797E-09
  980 7.90765109E-09
  981 7.90845683E-09
  982 7.70976317E-09
  983 7.67302907E-09
  984 7.77988587E-09
  985 7.75058144E-09
  986 7.63267173E-09
  987 7.58879784E-09
  988 7.71833636E-09
  989 7.68328821E-09
  990 7.87647937E-09
  991 7.83656361E-09
  992 7.57125462E-09
  993 7.47667856E-09
  994 7.79022465E-09
  995 7.68964207E-09
  996 7.65792071E-09
  997 7.81506887E-09
  998 7.79486063E-09
  999 7.37730813E-09
  1000 7.21908613E-09
  1001 7.16890107E-09
  1002 7.39081308E-09
  1003 7.35148879E-09
  1004 7.62590612E-09
  1005 7.59427325E-09
  1006 7.77471378E-09
  1007 7.75503874E-09
  1008 7.56383687E-09
  1009 7.53554179E-09
  1010 7.73630061E-09
  1011 7.71901516E-09
  1012 7.20254458E-09
  1013 7.15369665E-09
  1014 7.59842084E-09
  1015 7.47393483E-09
  1016 7.51905315E-09
  1017 7.68137907E-09
  1018 7.73134145E-09
  1019 7.19623052E-09
  1020 7.11656544E-09
  1021 7.14845734E-09
  1022 7.32307000E-09
  1023 7.34782250E-09
  1024 7.62312516E-09
  1025 7.53053449E-09
  1026 7.54805193E-09
  1027 7.73642831E-09
  1028 7.74674357E-09
  1029 7.18984277E-09
  1030 7.23871941E-09
  1031 7.38016880E-09
  1032 7.41860429E-09
  1033 7.40278147E-09
  1034 7.57124800E-09
  1035 7.59912564E-09
  1036 7.76083906E-09
  1037 7.77822389E-09
  1038 7.72863118E-09
  1039 7.50994928E-09
  1040 7.61743393E-09
  1041 7.78830053E-09
  1042 7.77449002E-09
  1043 7.81130221E-09
  1044 7.89589799E-09
  1045 7.91270500E-09
  1046 7.70914397E-09
  1047 7.80139233E-09
  1048 7.83762558E-09
  1049 7.87255228E-09
  1050 7.93888429E-09
  1051 7.96480421E-09
  1052 7.96267881E-09
  1053 7.98092498E-09
  1054 8.08158795E-09
  1055 8.14399965E-09
  1056 8.16514389E-09
  1057 8.14056705E-09
  1058 8.07423667E-09
  1059 8.03203643E-09
  1060 8.00441993E-09
  1061 8.04507126E-09
  1062 8.01665001E-09
  1063 8.10451562E-09
  1064 8.05225158E-09
  1065 7.97359262E-09
  1066 7.93974741E-09
  1067 7.98503862E-09
  1068 7.95041989E-09
  1069 7.90315909E-09
  1070 7.86528325E-09
  1071 7.91405827E-09
  1072 7.87457369E-09
  1073 7.98728859E-09
  1074 7.92578268E-09
  1075 7.88570102E-09
  1076 7.93918597E-09
  1077 7.89870141E-09
  1078 7.82460961E-09
  1079 7.78252604E-09
  1080 7.83310989E-09
  1081 7.79022875E-09
  1082 7.73969285E-09
  1083 7.69685800E-09
  1084 7.74659434E-09
  1085 7.70296205E-09
  1086 7.84364077E-09
  1087 7.80016133E-09
  1088 7.85624769E-09
  1089 7.81237901E-09
  1090 7.75592713E-09
  1091 7.71169696E-09
  1092 7.76775669E-09
  1093 7.72313869E-09
  1094 7.65483809E-09
  1095 7.61449132E-09
  1096 7.66015934E-09
  1097 7.61905814E-09
  1098 7.57668372E-09
  1099 7.54225081E-09
  1100 7.58054014E-09
  1101 7.54545726E-09
  1102 7.66830455E-09
  1103 7.62663068E-09
  1104 7.67936022E-09
  1105 7.63730564E-09
  1106 7.58756773E-09
  1107 7.55197926E-09
  1108 7.59787268E-09
  1109 7.56193148E-09
  1110 7.51195796E-09
  1111 7.48646314E-09
  1112 7.51459058E-09
  1113 7.48861176E-09
  1114 7.46628583E-09
  1115 7.45178513E-09
  1116 7.46805071E-09
  1117 7.45327275E-09
  1118 7.52065795E-09
  1119 7.49428583E-09
  1120 7.53028174E-09
  1121 7.50361227E-09
  1122 7.47340099E-09
  1123 7.45837406E-09
  1124 7.48246692E-09
  1125 7.46722050E-09
  1126 7.44314890E-09
  1127 7.44039478E-09
  1128 7.44446745E-09
  1129 7.44164951E-09
  1130 7.44338179E-09
  1131 7.45183075E-09
  1132 7.44467095E-09
  1133 7.45324225E-09
  1134 7.44939650E-09
  1135 7.44648157E-09
  1136 7.45806668E-09
  1137 7.45501883E-09
  1138 7.44947671E-09
  1139 7.45808528E-09
  1140 7.45792248E-09
  1141 7.46647740E-09
  1142 7.46535056E-09
  1143 7.48346746E-09
  1144 7.46695964E-09
  1145 7.48533536E-09
  1146 7.50565431E-09
  1147 7.50782798E-09
  1148 7.53387039E-09
  1149 7.47189459E-09
  1150 7.49040686E-09
  1151 7.48026598E-09
  1152 7.49878476E-09
  1153 7.51307031E-09
  1154 7.53930778E-09
  1155 7.52147592E-09
  1156 7.54775634E-09
  1157 7.56289399E-09
  1158 7.59434812E-09
  1159 7.56854139E-09
  1160 7.60021228E-09
  1161 7.57704254E-09
  1162 7.60877069E-09
  1163 7.63379530E-09
  1164 7.66880894E-09
  1165 7.64241142E-09
  1166 7.67747975E-09
  1167 7.70482102E-09
  1168 7.71354079E-09
  1169 7.75021206E-09
  1170 7.78716304E-09
  1171 7.82411287E-09
  1172 7.32951065E-09
  1173 7.25617520E-09
  1174 7.29531396E-09
  1175 7.33749950E-09
  1176 7.30381597E-09
  1177 7.34636692E-09
  1178 7.35923081E-09
  1179 7.39195291E-09
  1180 7.36672933E-09
  1181 7.39957604E-09
  1182 7.42064447E-09
  1183 7.44545835E-09
  1184 7.42819747E-09
  1185 7.45275736E-09
  1186 7.37496190E-09
  1187 7.40784609E-09
  1188 7.38397701E-09
  1189 7.41680502E-09
  1190 7.43631064E-09
  1191 7.46052984E-09
  1192 7.44502112E-09
  1193 7.46880971E-09
  1194 7.46656731E-09
  1195 7.48416610E-09
  1196 7.47343887E-09
  1197 7.49044738E-09
  1198 7.68939485E-09
  1199 7.69248869E-09
  1200 7.69005992E-09
  1201 7.69182146E-09
  1202 7.48069677E-09
  1203 7.68693721E-09
  1204 7.48837316E-09
  1205 7.68980195E-09
  1206 7.69113369E-09
  1207 7.69146955E-09
  1208 7.69268669E-09
  1209 7.69151145E-09
  1210 7.68997554E-09
  1211 7.67876354E-09
  1212 7.68837321E-09
  1213 7.68233029E-09
  1214 7.68672231E-09
  1215 7.67882872E-09
  1216 7.67388437E-09
  1217 7.66363438E-09
  1218 7.66840532E-09
  1219 7.65609000E-09
  1220 7.66199996E-09
  1221 7.65507535E-09
  1222 7.64780508E-09
  1223 7.64213365E-09
  1224 7.63320385E-09
  1225 7.65222782E-09
  1226 7.64034944E-09
  1227 7.64257731E-09
  1228 7.62860650E-09
  1229 7.62870492E-09
  1230 7.61800017E-09
  1231 7.61494385E-09
  1232 7.60235974E-09
  1233 7.63166240E-09
  1234 7.62705573E-09
  1235 7.60930506E-09
  1236 7.60263370E-09
  1237 7.59160115E-09
  1238 7.58385647E-09
  1239 7.58794460E-09
  1240 7.64048987E-09
  1241 7.64703253E-09
  1242 7.62128260E-09
  1243 7.62793595E-09
  1244 7.65662248E-09
  1245 7.66918474E-09
  1246 7.63802044E-09
  1247 7.65145314E-09
  1248 7.59360857E-09
  1249 7.61528003E-09
  1250 7.68540566E-09
  1251 7.72711615E-09
  1252 7.65219876E-09
  1253 7.69540958E-09
  1254 7.72139118E-09
  1255 7.68098378E-09
  1256 7.70919773E-09
  1257 7.76707202E-09
  1258 7.79081648E-09
  1259 7.75837324E-09
  1260 7.78460113E-09
  1261 7.81485299E-09
  1262 7.83871714E-09
  1263 7.81126146E-09
  1264 7.83786212E-09
  1265 7.74905200E-09
  1266 7.77783080E-09
  1267 7.73930016E-09
  1268 7.77068529E-09
  1269 7.80717605E-09
  1270 7.83656587E-09
  1271 7.80276274E-09
  1272 7.83497917E-09
  1273 7.87501578E-09
  1274 7.90493323E-09
  1275 7.88112091E-09
  1276 7.93396587E-09
  1277 7.95978769E-09
  1278 7.94118065E-09
  1279 7.97008690E-09
  1280 7.94202324E-09
  1281 7.97105189E-09
  1282 7.97318290E-09
  1283 8.01537055E-09
  1284 7.99153531E-09
  1285 7.99816691E-09
  1286 8.04397491E-09
  1287 8.04884582E-09
  1288 8.05986903E-09
  1289 8.08349657E-09
  1290 8.09866963E-09
  1291 8.00382335E-09
  1292 8.02728778E-09
  1293 8.06960992E-09
  1294 8.07831217E-09
  1295 8.11286575E-09
  1296 8.12637540E-09
  1297 8.14211032E-09
  1298 8.09706872E-09
  1299 8.00593895E-09
  1300 7.99834325E-09
  1301 8.21206496E-09
  1302 8.24471504E-09
  1303 7.92163451E-09
  1304 7.91371778E-09
  1305 8.06540564E-09
  1306 8.06889527E-09
  1307 7.98958320E-09
  1308 8.28247754E-09
  1309 8.32163016E-09
  1310 7.98773364E-09
  1311 7.94347063E-09
  1312 7.93966455E-09
  1313 8.14251163E-09
  1314 8.14189925E-09
  1315 8.35518844E-09
  1316 8.42855884E-09
  1317 7.93750333E-09
  1318 7.93706952E-09
  1319 8.14030556E-09
  1320 8.13777758E-09
  1321 8.03715103E-09
  1322 8.42686916E-09
  1323 8.40761894E-09
  1324 8.03890125E-09
  1325 8.04609252E-09
  1326 8.37692483E-09
  1327 8.34351367E-09
  1328 8.05966660E-09
  1329 8.01526997E-09
  1330 8.02193470E-09
  1331 8.12253609E-09
  1332 8.12851374E-09
  1333 8.31470922E-09
  1334 8.23516570E-09
  1335 8.23166950E-09
  1336 8.34316797E-09
  1337 8.33072311E-09
  1338 8.03855916E-09
  1339 8.05566029E-09
  1340 8.13589488E-09
  1341 8.14445941E-09
  1342 8.12055684E-09
  1343 8.23021014E-09
  1344 8.23060190E-09
  1345 8.32090255E-09
  1346 8.31355413E-09
  1347 8.27072104E-09
  1348 8.21958644E-09
  1349 8.24941501E-09
  1350 8.26579658E-09
  1351 8.25771681E-09
  1352 8.21546200E-09
  1353 8.13017476E-09
  1354 8.01896580E-09
  1355 7.94235594E-09
  1356 8.05527259E-09
  1357 7.97925762E-09
  1358 7.87094615E-09
  1359 7.82690350E-09
  1360 7.88772009E-09
  1361 7.84372118E-09
  1362 7.78211129E-09
  1363 7.73732233E-09
  1364 7.79897988E-09
  1365 7.75423961E-09
  1366 7.89502612E-09
  1367 7.80669642E-09
  1368 7.69336832E-09
  1369 7.65113181E-09
  1370 7.71032359E-09
  1371 7.66810708E-09
  1372 7.61151032E-09
  1373 7.57537516E-09
  1374 7.62848173E-09
  1375 7.59231455E-09
  1376 7.71998642E-09
  1377 7.64162699E-09
  1378 7.54352830E-09
  1379 7.51666148E-09
  1380 7.56040486E-09
  1381 7.53344339E-09
  1382 7.49532172E-09
  1383 7.47988681E-09
  1384 7.51197761E-09
  1385 7.49638701E-09
  1386 7.57829581E-09
  1387 7.53534465E-09
  1388 7.47055291E-09
  1389 7.46733510E-09
  1390 7.48687043E-09
  1391 7.48344632E-09
  1392 7.47007982E-09
  1393 7.47848691E-09
  1394 7.48596482E-09
  1395 7.49412960E-09
  1396 7.50697319E-09
  1397 7.50330894E-09
  1398 7.53075458E-09
  1399 7.52682067E-09
  1400 7.50553658E-09
  1401 7.51336724E-09
  1402 7.52869784E-09
  1403 7.53610821E-09
  1404 7.49213814E-09