# File generated by Flopy version 3.9.1 on 02/09/2026 at 21:54:34.
BEGIN options
  SAVE_FLOWS
END options

BEGIN dimensions
  MAXBOUND  2117
  NSEG  1
END dimensions

BEGIN period  1
  1 12      -9.00000000  3.96914768E-09       2.00000000
  1 13      -9.00000000  4.14388079E-09       2.00000000
  1 14      -8.00000000  4.14388079E-09       2.00000000
  1 15      -9.00000000  4.14388079E-09       2.00000000
  1 16      -9.00000000  4.14388079E-09       2.00000000
  1 17      -8.00000000  4.14388079E-09       2.00000000
  1 18      -9.00000000  4.14388079E-09       2.00000000
  1 19      -9.00000000  4.14388079E-09       2.00000000
  1 20      -9.00000000  4.14388079E-09       2.00000000
  1 21      -9.00000000  4.14388079E-09       2.00000000
  1 22      -9.00000000  4.14388079E-09       2.00000000
  1 23      -9.00000000  4.14388079E-09       2.00000000
  1 24      -9.00000000  4.14388079E-09       2.00000000
  1 25      -9.00000000  4.14388079E-09       2.00000000
  1 26      -9.00000000  4.14388079E-09       2.00000000
  1 27      -9.00000000  4.14388079E-09       2.00000000
  1 28      -9.00000000  4.14388079E-09       2.00000000
  1 29      -9.00000000  4.14388079E-09       2.00000000
  1 30      -9.00000000  4.14388079E-09       2.00000000
  1 31      -1.00000000  4.39120429E-09       2.00000000
  1 32      -1.00000000  4.39120429E-09       2.00000000
  1 33      -1.00000000  4.51815518E-09       2.00000000
  1 34      -1.00000000  4.51815518E-09       2.00000000
  1 35      19.00000000  2.53973931E-09       2.00000000
  1 36      29.00000000  2.74308021E-09       2.00000000
  1 37      20.00000000  3.03723846E-09       2.00000000
  1 38      28.00000000  3.03723846E-09       2.00000000
  1 39      30.00000000  3.03723846E-09       2.00000000
  1 40      21.00000000  3.03723846E-09       2.00000000
  1 41      20.00000000  3.03723846E-09       2.00000000
  1 42      22.00000000  3.03723846E-09       2.00000000
  1 43      31.00000000  2.97717628E-09       2.00000000
  1 44      30.00000000  3.02954195E-09       2.00000000
  1 45      26.00000000  3.02954195E-09       2.00000000
  1 46      26.00000000  3.02954195E-09       2.00000000
  1 47      24.00000000  3.14411874E-09       2.00000000
  1 48      27.00000000  3.14411874E-09       2.00000000
  1 49      26.00000000  3.14411874E-09       2.00000000
  1 50      25.00000000  3.14411874E-09       2.00000000
  1 51      30.00000000  3.18626503E-09       2.00000000
  1 52      27.00000000  3.18626503E-09       2.00000000
  1 53      29.00000000  3.18626503E-09       2.00000000
  1 54      30.00000000  3.18626503E-09       2.00000000
  1 55      22.00000000  3.18626503E-09       2.00000000
  1 56      22.00000000  3.15066173E-09       2.00000000
  1 57      21.00000000  3.15066173E-09       2.00000000
  1 58      26.00000000  3.15066173E-09       2.00000000
  1 59      31.00000000  3.15066173E-09       2.00000000
  1 60      30.00000000  3.15066173E-09       2.00000000
  1 61      30.00000000  3.16369975E-09       2.00000000
  1 62      29.00000000  3.16369975E-09       2.00000000
  1 63      28.00000000  3.07921377E-09       2.00000000
  1 64      28.00000000  3.12451554E-09       2.00000000
  1 65      30.00000000  3.12451554E-09       2.00000000
  1 66      29.00000000  3.12451554E-09       2.00000000
  1 67      29.00000000  3.12451554E-09       2.00000000
  1 68      27.00000000  3.12451554E-09       2.00000000
  1 69      27.00000000  3.12451554E-09       2.00000000
  1 70      27.00000000  3.12451554E-09       2.00000000
  1 71      26.00000000  3.12451554E-09       2.00000000
  1 72      27.00000000  3.12451554E-09       2.00000000
  1 73      27.00000000  3.12451554E-09       2.00000000
  1 74      28.00000000  3.12451554E-09       2.00000000
  1 75      25.00000000  3.12451554E-09       2.00000000
  1 76      42.00000000  3.22670002E-09       2.00000000
  1 77      34.00000000  3.22670002E-09       2.00000000
  1 78      39.00000000  3.22670002E-09       2.00000000
  1 79      32.00000000  3.12870663E-09       2.00000000
  1 80      31.00000000  3.12870663E-09       2.00000000
  1 81      29.00000000  3.12870663E-09       2.00000000
  1 82      29.00000000  3.12870663E-09       2.00000000
  1 83      29.00000000  3.12870663E-09       2.00000000
  1 84      29.00000000  3.12870663E-09       2.00000000
  1 85      29.00000000  3.12870663E-09       2.00000000
  1 86      29.00000000  3.12870663E-09       2.00000000
  1 87      29.00000000  3.12870663E-09       2.00000000
  1 88      36.00000000  3.12870663E-09       2.00000000
  1 89      35.00000000  3.12870663E-09       2.00000000
  1 90      31.00000000  3.12870663E-09       2.00000000
  1 91      37.00000000  3.12870663E-09       2.00000000
  1 92      40.00000000  3.12870663E-09       2.00000000
  1 93      39.00000000  3.12870663E-09       2.00000000
  1 94      38.00000000  3.24517435E-09       2.00000000
  1 95      35.00000000  3.24517435E-09       2.00000000
  1 96      40.00000000  3.24517435E-09       2.00000000
  1 97      36.00000000  3.24517435E-09       2.00000000
  1 98      32.00000000  3.24517435E-09       2.00000000
  1 99      30.00000000  3.24517435E-09       2.00000000
  1 100      30.00000000  3.24517435E-09       2.00000000
  1 101      30.00000000  3.24517435E-09       2.00000000
  1 102      29.00000000  3.24517435E-09       2.00000000
  1 103      25.00000000  3.24517435E-09       2.00000000
  1 104      28.00000000  3.24517435E-09       2.00000000
  1 105      26.00000000  3.24517435E-09       2.00000000
  1 106      27.00000000  3.24517435E-09       2.00000000
  1 107      26.00000000  3.27883720E-09       2.00000000
  1 108      28.00000000  3.27883720E-09       2.00000000
  1 109      37.00000000  3.27883720E-09       2.00000000
  1 110      34.00000000  3.27883720E-09       2.00000000
  1 111      35.00000000  3.27883720E-09       2.00000000
  1 112      35.00000000  3.27883720E-09       2.00000000
  1 113      38.00000000  3.27883720E-09       2.00000000
  1 114      35.00000000  3.27883720E-09       2.00000000
  1 115      32.00000000  3.27883720E-09       2.00000000
  1 116      33.00000000  3.27883720E-09       2.00000000
  1 117      32.00000000  3.27883720E-09       2.00000000
  1 118      31.00000000  3.27883720E-09       2.00000000
  1 119      30.00000000  3.27883720E-09       2.00000000
  1 120      30.00000000  3.27883720E-09       2.00000000
  1 121      29.00000000  3.27883720E-09       2.00000000
  1 122      28.00000000  3.27883720E-09       2.00000000
  1 123      29.00000000  3.27883720E-09       2.00000000
  1 124      30.00000000  3.27883720E-09       2.00000000
  1 125      29.00000000  3.27883720E-09       2.00000000
  1 126      28.00000000  3.27883720E-09       2.00000000
  1 127      26.00000000  3.27883720E-09       2.00000000
  1 128      27.00000000  3.27883720E-09       2.00000000
  1 129      27.00000000  3.27883720E-09       2.00000000
  1 130      33.00000000  3.43605899E-09       2.00000000
  1 131      35.00000000  3.43605899E-09       2.00000000
  1 132      39.00000000  3.43605899E-09       2.00000000
  1 133      39.00000000  3.43605899E-09       2.00000000
  1 134      39.00000000  3.43605899E-09       2.00000000
  1 135      35.00000000  3.43605899E-09       2.00000000
  1 136      36.00000000  3.44005135E-09       2.00000000
  1 137      37.00000000  3.44005135E-09       2.00000000
  1 138      39.00000000  3.44005135E-09       2.00000000
  1 139      40.00000000  3.44005135E-09       2.00000000
  1 140      45.00000000  3.44005135E-09       2.00000000
  1 141      39.00000000  3.44005135E-09       2.00000000
  1 142      51.00000000  3.44005135E-09       2.00000000
  1 143      51.00000000  3.44005135E-09       2.00000000
  1 144      58.00000000  3.44005135E-09       2.00000000
  1 145      57.00000000  3.44005135E-09       2.00000000
  1 146      60.00000000  3.49964790E-09       2.00000000
  1 147      57.00000000  3.49964790E-09       2.00000000
  1 148      60.00000000  3.49964790E-09       2.00000000
  1 149      59.00000000  3.49964790E-09       2.00000000
  1 150      59.00000000  3.49964790E-09       2.00000000
  1 151      59.00000000  3.49964790E-09       2.00000000
  1 152      52.00000000  3.49964790E-09       2.00000000
  1 153      71.00000000  3.49964790E-09       2.00000000
  1 154      57.00000000  3.49964790E-09       2.00000000
  1 155      55.00000000  3.49420004E-09       2.00000000
  1 156      79.00000000  3.49420004E-09       2.00000000
  1 157      72.00000000  3.49420004E-09       2.00000000
  1 158      73.00000000  3.49420004E-09       2.00000000
  1 159      48.00000000  3.49420004E-09       2.00000000
  1 160      59.00000000  3.49420004E-09       2.00000000
  1 161      79.00000000  3.49420004E-09       2.00000000
  1 162      79.00000000  3.55499341E-09       2.00000000
  1 163      88.00000000  3.55499341E-09       2.00000000
  1 164      85.00000000  3.55499341E-09       2.00000000
  1 165      80.00000000  3.58363916E-09       2.00000000
  1 166      79.00000000  3.58363916E-09       2.00000000
  1 167      80.00000000  3.58363916E-09       2.00000000
  1 168      96.00000000  3.58363916E-09       2.00000000
  1 169      88.00000000  3.58363916E-09       2.00000000
  1 170      98.00000000  3.72400200E-09       2.00000000
  1 171     106.00000000  3.72400200E-09       2.00000000
  1 172     109.00000000  3.72400200E-09       2.00000000
  1 173     110.00000000  3.72400200E-09       2.00000000
  1 174     130.00000000  3.93281807E-09       2.00000000
  1 175      89.00000000  4.13709778E-09       2.00000000
  1 176      88.00000000  4.05655110E-09       2.00000000
  1 177      91.00000000  4.15786738E-09       2.00000000
  1 178      90.00000000  4.15786738E-09       2.00000000
  1 179      78.00000000  4.15786738E-09       2.00000000
  1 180      83.00000000  4.15786738E-09       2.00000000
  1 181     123.00000000  4.08339007E-09       2.00000000
  1 182      84.00000000  4.08339007E-09       2.00000000
  1 183      85.00000000  4.08339007E-09       2.00000000
  1 184     115.00000000  4.06025080E-09       2.00000000
  1 185     123.00000000  4.06025080E-09       2.00000000
  1 186     133.00000000  4.06025080E-09       2.00000000
  1 187     148.00000000  4.06025080E-09       2.00000000
  1 188     148.00000000  4.06025080E-09       2.00000000
  1 189     140.00000000  4.06025080E-09       2.00000000
  1 190     133.00000000  4.06025080E-09       2.00000000
  1 191     139.00000000  4.02770395E-09       2.00000000
  1 192      70.00000000  3.97766797E-09       2.00000000
  1 193      74.00000000  4.08616829E-09       2.00000000
  1 194      89.00000000  4.08616829E-09       2.00000000
  1 195      81.00000000  4.08616829E-09       2.00000000
  1 196     100.00000000  4.08171452E-09       2.00000000
  1 197      97.00000000  4.08171452E-09       2.00000000
  1 198      73.00000000  4.08616829E-09       2.00000000
  1 199      68.00000000  4.08616829E-09       2.00000000
  1 200      89.00000000  4.08616829E-09       2.00000000
  1 201      75.00000000  4.07806677E-09       2.00000000
  1 202      64.00000000  4.24052837E-09       2.00000000
  1 203      59.00000000  4.24052837E-09       2.00000000
  1 204      75.00000000  4.07806677E-09       2.00000000
  1 205      32.00000000  4.19784341E-09       2.00000000
  1 206      33.00000000  4.19784341E-09       2.00000000
  1 207      21.00000000  4.19784341E-09       2.00000000
  1 208      19.00000000  4.19784341E-09       2.00000000
  1 209      16.00000000  4.19784341E-09       2.00000000
  1 210      15.00000000  4.19784341E-09       2.00000000
  1 211      13.00000000  4.19784341E-09       2.00000000
  1 212      12.00000000  4.49536897E-09       2.00000000
  1 213      12.00000000  4.49536897E-09       2.00000000
  1 214      12.00000000  4.19784341E-09       2.00000000
  1 215      12.00000000  4.49536897E-09       2.00000000
  1 216      12.00000000  4.49536897E-09       2.00000000
  1 217      11.00000000  4.61752947E-09       2.00000000
  1 218      13.00000000  4.61752947E-09       2.00000000
  1 219      13.00000000  4.61752947E-09       2.00000000
  1 220      12.00000000  4.61752947E-09       2.00000000
  1 221       7.00000000  4.61752947E-09       2.00000000
  1 222       7.00000000  4.61752947E-09       2.00000000
  1 223       7.00000000  4.61752947E-09       2.00000000
  1 224       6.00000000  4.61752947E-09       2.00000000
  1 225       6.00000000  4.61752947E-09       2.00000000
  1 226       6.00000000  4.61752947E-09       2.00000000
  1 227       6.00000000  4.61752947E-09       2.00000000
  1 228       5.00000000  4.61752947E-09       2.00000000
  1 229       5.00000000  4.61752947E-09       2.00000000
  1 230       4.00000000  4.87848162E-09       2.00000000
  1 231       4.00000000  4.87848162E-09       2.00000000
  1 232       3.00000000  4.87848162E-09       2.00000000
  1 233       3.00000000  4.87848162E-09       2.00000000
  1 234       4.00000000  4.76684026E-09       2.00000000
  1 235       1.00000000  4.76684026E-09       2.00000000
  1 236       0.00000000  4.76684026E-09       2.00000000
  1 237       1.00000000  4.76684026E-09       2.00000000
  1 238       1.00000000  4.76684026E-09       2.00000000
  1 239       2.00000000  4.76684026E-09       2.00000000
  1 240       2.00000000  4.76684026E-09       2.00000000
  1 241       3.00000000  5.13324583E-09       2.00000000
  1 242       4.00000000  5.05002529E-09       2.00000000
  1 243       2.00000000  5.05002529E-09       2.00000000
  1 244       2.00000000  5.53148505E-09       2.00000000
  1 249     -16.00000000  5.71504666E-09       2.00000000
  1 250     -16.00000000  5.71504666E-09       2.00000000
  1 251     -16.00000000  5.71504666E-09       2.00000000
  1 252     -16.00000000  5.71504666E-09       2.00000000
  1 253     -16.00000000  5.71504666E-09       2.00000000
  1 254     -15.00000000  5.71504666E-09       2.00000000
  1 255     -14.00000000  5.71504666E-09       2.00000000
  1 256     -16.00000000  5.71504666E-09       2.00000000
  1 259     -16.00000000  5.66805580E-09       2.00000000
  1 260     -16.00000000  5.66805580E-09       2.00000000
  1 261     -16.00000000  5.66805580E-09       2.00000000
  1 262     -16.00000000  5.66805580E-09       2.00000000
  1 263     -16.00000000  5.66805580E-09       2.00000000
  1 264     -10.00000000  5.66805580E-09       2.00000000
  1 273     -11.00000000  5.47655343E-09       2.00000000
  1 274     -16.00000000  5.47655343E-09       2.00000000
  1 303     -14.00000000  5.04191844E-09       2.00000000
  1 304     -11.00000000  5.04191844E-09       2.00000000
  1 305     -11.00000000  5.04191844E-09       2.00000000
  1 306     -11.00000000  5.04191844E-09       2.00000000
  1 307     -15.00000000  5.04191844E-09       2.00000000
  1 308     -16.00000000  5.04191844E-09       2.00000000
  1 309     -16.00000000  5.04191844E-09       2.00000000
  1 310     -15.00000000  5.04191844E-09       2.00000000
  1 311      -6.00000000  4.54786386E-09       2.00000000
  1 312     -16.00000000  4.54786386E-09       2.00000000
  1 313     -16.00000000  4.54786386E-09       2.00000000
  1 314     -16.00000000  4.54786386E-09       2.00000000
  1 386     -16.00000000  4.74920059E-09       2.00000000
  1 387     -16.00000000  4.74920059E-09       2.00000000
  1 388      -2.00000000  4.56789051E-09       2.00000000
  1 389      -2.00000000  4.56789051E-09       2.00000000
  1 390      -2.00000000  4.56789051E-09       2.00000000
  1 391      -2.00000000  4.56789051E-09       2.00000000
  1 392      -2.00000000  4.56789051E-09       2.00000000
  1 393      -2.00000000  4.56789051E-09       2.00000000
  1 394      -2.00000000  4.56789051E-09       2.00000000
  1 395      -2.00000000  4.56789051E-09       2.00000000
  1 396      -1.00000000  4.56789051E-09       2.00000000
  1 397      -2.00000000  4.41029346E-09       2.00000000
  1 441      -2.00000000  4.67454564E-09       2.00000000
  1 442      -2.00000000  4.67454564E-09       2.00000000
  1 443      -2.00000000  4.67454564E-09       2.00000000
  1 444      -2.00000000  4.67454564E-09       2.00000000
  1 445      -2.00000000  4.67454564E-09       2.00000000
  1 446      -3.00000000  4.67454564E-09       2.00000000
  1 447      -2.00000000  4.67454564E-09       2.00000000
  1 448      -2.00000000  4.67454564E-09       2.00000000
  1 449      -2.00000000  4.67454564E-09       2.00000000
  1 450      -2.00000000  4.67454564E-09       2.00000000
  1 451      -2.00000000  4.67454564E-09       2.00000000
  1 452      -2.00000000  4.67454564E-09       2.00000000
  1 453      -2.00000000  4.67454564E-09       2.00000000
  1 454      -2.00000000  4.67454564E-09       2.00000000
  1 455      -2.00000000  4.67454564E-09       2.00000000
  1 456      -2.00000000  4.67454564E-09       2.00000000
  1 457      -2.00000000  4.67454564E-09       2.00000000
  1 458      -2.00000000  4.67454564E-09       2.00000000
  1 459      -2.00000000  4.67454564E-09       2.00000000
  1 460      -2.00000000  4.67454564E-09       2.00000000
  1 461      -2.00000000  4.67454564E-09       2.00000000
  1 462      -2.00000000  4.67454564E-09       2.00000000
  1 463      -2.00000000  4.67454564E-09       2.00000000
  1 464      -2.00000000  4.67454564E-09       2.00000000
  1 465      -2.00000000  4.67454564E-09       2.00000000
  1 466      -2.00000000  4.67454564E-09       2.00000000
  1 467      -2.00000000  4.67454564E-09       2.00000000
  1 468      -2.00000000  4.67454564E-09       2.00000000
  1 469      -2.00000000  4.26248370E-09       2.00000000
  1 470      -2.00000000  4.26248370E-09       2.00000000
  1 471      -2.00000000  4.26248370E-09       2.00000000
  1 482       0.00000000  4.18587254E-09       2.00000000
  1 483      -2.00000000  4.18587254E-09       2.00000000
  1 484      -1.00000000  4.18587254E-09       2.00000000
  1 485       7.00000000  4.18587254E-09       2.00000000
  1 486      -2.00000000  4.18587254E-09       2.00000000
  1 487       1.00000000  4.18587254E-09       2.00000000
  1 488      -2.00000000  4.18587254E-09       2.00000000
  1 489      -2.00000000  4.18587254E-09       2.00000000
  1 490      -2.00000000  4.18587254E-09       2.00000000
  1 491      -2.00000000  4.18587254E-09       2.00000000
  1 492      -2.00000000  4.18587254E-09       2.00000000
  1 493      -2.00000000  4.18587254E-09       2.00000000
  1 494      -1.00000000  4.18587254E-09       2.00000000
  1 495      -2.00000000  4.18587254E-09       2.00000000
  1 496      -2.00000000  4.18587254E-09       2.00000000
  1 497      -2.00000000  4.25859925E-09       2.00000000
  1 498       0.00000000  4.25859925E-09       2.00000000
  1 499      -1.00000000  4.25859925E-09       2.00000000
  1 500      -2.00000000  4.25859925E-09       2.00000000
  1 501      -2.00000000  4.25859925E-09       2.00000000
  1 502      -2.00000000  4.25859925E-09       2.00000000
  1 503      -2.00000000  4.25859925E-09       2.00000000
  1 504      -2.00000000  4.25859925E-09       2.00000000
  1 505      -2.00000000  4.25859925E-09       2.00000000
  1 506      -2.00000000  4.25859925E-09       2.00000000
  1 507      -2.00000000  4.25859925E-09       2.00000000
  1 643      -9.00000000  4.14388079E-09       2.00000000
  1 644      -9.00000000  4.14388079E-09       2.00000000
  1 645      -9.00000000  4.14388079E-09       2.00000000
  1 646      -9.00000000  4.14388079E-09       2.00000000
  1 647      40.00000000  3.12870663E-09       2.00000000
  1 648      37.00000000  3.24517435E-09       2.00000000
  1 649      29.00000000  3.24517435E-09       2.00000000
  1 650      33.00000000  3.27883720E-09       2.00000000
  1 651      39.00000000  3.43605899E-09       2.00000000
  1 652      69.00000000  3.49420004E-09       2.00000000
  1 653      84.00000000  3.55499341E-09       2.00000000
  1 654      85.00000000  3.58363916E-09       2.00000000
  1 655      80.00000000  4.15786738E-09       2.00000000
  1 656      89.00000000  4.12984358E-09       2.00000000
  1 657      86.00000000  4.08616829E-09       2.00000000
  1 658       5.00000000  5.46424239E-09       2.00000000
  1 659     -16.00000000  5.71504666E-09       2.00000000
  1 673      -2.00000000  4.56789051E-09       2.00000000
  1 680      -2.00000000  4.67454564E-09       2.00000000
  1 681      -2.00000000  4.67454564E-09       2.00000000
  1 682      -2.00000000  4.67454564E-09       2.00000000
  1 683      -2.00000000  4.67454564E-09       2.00000000
  1 695      -9.00000000  4.14388079E-09       2.00000000
  1 699      -9.00000000  4.14388079E-09       2.00000000
  1 700      -9.00000000  4.14388079E-09       2.00000000
  1 701      -9.00000000  4.14388079E-09       2.00000000
  1 702      41.00000000  3.22670002E-09       2.00000000
  1 705      33.00000000  3.27883720E-09       2.00000000
  1 708      91.00000000  3.58363916E-09       2.00000000
  1 710     -16.00000000  5.71504666E-09       2.00000000
  1 711     103.00000000  4.12984358E-09       2.00000000
  1 712     105.00000000  4.08171452E-09       2.00000000
  1 713       7.00000000  5.53148505E-09       2.00000000
  1 714     -16.00000000  5.71504666E-09       2.00000000
  1 728      -2.00000000  4.56789051E-09       2.00000000
  1 735      -2.00000000  4.67454564E-09       2.00000000
  1 736      -2.00000000  4.67454564E-09       2.00000000
  1 737      -2.00000000  4.67454564E-09       2.00000000
  1 746      -9.00000000  4.14388079E-09       2.00000000
  1 749      -9.00000000  4.14388079E-09       2.00000000
  1 750      -9.00000000  4.14388079E-09       2.00000000
  1 752      -9.00000000  4.14388079E-09       2.00000000
  1 756      33.00000000  3.27883720E-09       2.00000000
  1 759     124.00000000  4.12984358E-09       2.00000000
  1 761     -16.00000000  5.71504666E-09       2.00000000
  1 782      -2.00000000  4.67454564E-09       2.00000000
  1 783      -2.00000000  4.67454564E-09       2.00000000
  1 792      -9.00000000  4.14388079E-09       2.00000000
  1 795      -9.00000000  4.14388079E-09       2.00000000
  1 796      -9.00000000  4.14388079E-09       2.00000000
  1 804     129.00000000  4.12984358E-09       2.00000000
  1 825      -2.00000000  4.67454564E-09       2.00000000
  1 830      -2.00000000  4.67454564E-09       2.00000000
  1 831      -2.00000000  4.67454564E-09       2.00000000
  1 843      -9.00000000  4.14388079E-09       2.00000000
  1 844      -9.00000000  4.14388079E-09       2.00000000
  1 873      -2.00000000  4.67454564E-09       2.00000000
  1 878      -2.00000000  4.67454564E-09       2.00000000
  1 879      -2.00000000  4.67454564E-09       2.00000000
  1 894      -9.00000000  4.14388079E-09       2.00000000
  1 914      -2.00000000  4.67454564E-09       2.00000000
  1 929      -2.00000000  4.67454564E-09       2.00000000
  1 930      -2.00000000  4.67454564E-09       2.00000000
  1 934      -2.00000000  4.67454564E-09       2.00000000
  1 935      -2.00000000  4.67454564E-09       2.00000000
  1 951      -9.00000000  4.14388079E-09       2.00000000
  1 977      -2.00000000  4.67454564E-09       2.00000000
  1 978      -2.00000000  4.67454564E-09       2.00000000
  1 999      -2.00000000  4.67454564E-09       2.00000000
  1 1001      -2.00000000  4.67454564E-09       2.00000000
  1 1002      -2.00000000  4.67454564E-09       2.00000000
  1 1019      -2.00000000  4.67454564E-09       2.00000000
  1 1028      -2.00000000  4.67454564E-09       2.00000000
  1 1074     -16.00000000  5.71504666E-09       2.00000000
  1 1081      -9.00000000  4.14388079E-09       2.00000000
  1 1082      -9.00000000  4.14388079E-09       2.00000000
  1 1083      -9.00000000  4.14388079E-09       2.00000000
  1 1084      -9.00000000  4.14388079E-09       2.00000000
  1 1087     -16.00000000  5.71504666E-09       2.00000000
  1 1091     -16.00000000  5.71504666E-09       2.00000000
  1 1104      -9.00000000  4.14388079E-09       2.00000000
  1 1111      -9.00000000  4.14388079E-09       2.00000000
  1 1114      -9.00000000  4.14388079E-09       2.00000000
  1 1117      -9.00000000  4.14388079E-09       2.00000000
  1 1144     -16.00000000  5.71504666E-09       2.00000000
  1 1145     -16.00000000  5.71504666E-09       2.00000000
  1 1146      -9.00000000  4.14388079E-09       2.00000000
  1 1151     -16.00000000  5.71504666E-09       2.00000000
  1 1153     -16.00000000  5.71504666E-09       2.00000000
  1 1154     -16.00000000  5.71504666E-09       2.00000000
  1 1156     -13.00000000  5.71504666E-09       2.00000000
  1 1160      -9.00000000  4.14388079E-09       2.00000000
  1 1161      -9.00000000  4.14388079E-09       2.00000000
  1 1166      -9.00000000  4.14388079E-09       2.00000000
  1 1168      -9.00000000  4.14388079E-09       2.00000000
  1 1171       1.00000000  4.56789051E-09       2.00000000
  1 1172     -14.00000000  5.71504666E-09       2.00000000
  1 1177      -9.00000000  4.14388079E-09       2.00000000
  1 1178      -4.00000000  4.14388079E-09       2.00000000
  1 1187      -2.00000000  4.67454564E-09       2.00000000
  1 1191      -2.00000000  4.14388079E-09       2.00000000
  1 1194     -16.00000000  5.04191844E-09       2.00000000
  1 1203     -16.00000000  5.04191844E-09       2.00000000
  1 1205     -16.00000000  5.04191844E-09       2.00000000
  1 1207      -9.00000000  4.14388079E-09       2.00000000
  1 1209       0.00000000  5.71504666E-09       2.00000000
  1 1210      -9.00000000  4.14388079E-09       2.00000000
  1 1215      -4.00000000  4.67454564E-09       2.00000000
  1 1216      -3.00000000  4.14388079E-09       2.00000000
  1 1218      32.00000000  3.27883720E-09       2.00000000
  1 1224       2.00000000  5.04191844E-09       2.00000000
  1 1229      -2.00000000  4.67454564E-09       2.00000000
  1 1230       0.00000000  3.92212840E-09       2.00000000
  1 1236      -2.00000000  4.56789051E-09       2.00000000
  1 1237      -1.00000000  4.56789051E-09       2.00000000
  1 1242      -9.00000000  4.14388079E-09       2.00000000
  1 1248      -2.00000000  4.56789051E-09       2.00000000
  1 1251      -2.00000000  4.56789051E-09       2.00000000
  1 1252       2.00000000  4.56789051E-09       2.00000000
  1 1253       9.00000000  4.61752947E-09       2.00000000
  1 1254       1.00000000  4.76684026E-09       2.00000000
  1 1255      29.00000000  3.12451554E-09       2.00000000
  1 1256      10.00000000  4.18587254E-09       2.00000000
  1 1260      -4.00000000  5.71504666E-09       2.00000000
  1 1267       8.00000000  4.61752947E-09       2.00000000
  1 1268      28.00000000  3.12451554E-09       2.00000000
  1 1270       8.00000000  4.61752947E-09       2.00000000
  1 1271      28.00000000  3.12451554E-09       2.00000000
  1 1272       7.00000000  4.61752947E-09       2.00000000
  1 1273      11.00000000  4.49536897E-09       2.00000000
  1 1275      29.00000000  3.12870663E-09       2.00000000
  1 1276      29.00000000  3.12870663E-09       2.00000000
  1 1277      35.00000000  3.12870663E-09       2.00000000
  1 1278      -2.00000000  4.67454564E-09       2.00000000
  1 1279      26.00000000  3.12451554E-09       2.00000000
  1 1280       8.00000000  4.25859925E-09       2.00000000
  1 1288       0.00000000  4.14388079E-09       2.00000000
  1 1294       1.00000000  3.92212840E-09       2.00000000
  1 1295      19.00000000  4.56789051E-09       2.00000000
  1 1299      -2.00000000  4.67454564E-09       2.00000000
  1 1304      -5.00000000  4.14388079E-09       2.00000000
  1 1306      18.00000000  4.56789051E-09       2.00000000
  1 1312       2.00000000  4.14388079E-09       2.00000000
  1 1313       1.00000000  4.54786386E-09       2.00000000
  1 1315       3.00000000  5.04191844E-09       2.00000000
  1 1316       0.00000000  3.92212840E-09       2.00000000
  1 1326       2.00000000  4.18587254E-09       2.00000000
  1 1327      -9.00000000  4.14388079E-09       2.00000000
  1 1332       1.00000000  3.92212840E-09       2.00000000
  1 1333      -1.00000000  5.71504666E-09       2.00000000
  1 1334       8.00000000  4.61752947E-09       2.00000000
  1 1338       0.00000000  3.92212840E-09       2.00000000
  1 1339      -9.00000000  4.14388079E-09       2.00000000
  1 1341      -3.00000000  4.14388079E-09       2.00000000
  1 1342      15.00000000  4.19784341E-09       2.00000000
  1 1343      29.00000000  3.27883720E-09       2.00000000
  1 1344       0.00000000  4.54786386E-09       2.00000000
  1 1345      -2.00000000  4.56789051E-09       2.00000000
  1 1346      35.00000000  3.27883720E-09       2.00000000
  1 1347      -2.00000000  4.67454564E-09       2.00000000
  1 1348      -2.00000000  4.26248370E-09       2.00000000
  1 1349      -2.00000000  4.67454564E-09       2.00000000
  1 1350       1.00000000  3.92212840E-09       2.00000000
  1 1351       1.00000000  4.76684026E-09       2.00000000
  1 1352      28.00000000  3.12451554E-09       2.00000000
  1 1354       1.00000000  3.92212840E-09       2.00000000
  1 1355      -1.00000000  4.41029346E-09       2.00000000
  1 1356      -7.00000000  4.54786386E-09       2.00000000
  1 1357      -4.00000000  4.67454564E-09       2.00000000
  1 1358      10.00000000  4.56789051E-09       2.00000000
  1 1366      -2.00000000  4.67454564E-09       2.00000000
  1 1368      -2.00000000  4.41029346E-09       2.00000000
  1 1369       9.00000000  4.56789051E-09       2.00000000
  1 1370       3.00000000  5.71504666E-09       2.00000000
  1 1371      -2.00000000  4.67454564E-09       2.00000000
  1 1372      -2.00000000  4.56789051E-09       2.00000000
  1 1373      -2.00000000  4.56789051E-09       2.00000000
  1 1376      36.00000000  3.12870663E-09       2.00000000
  1 1377      29.00000000  3.02954195E-09       2.00000000
  1 1381       0.00000000  5.06828357E-09       2.00000000
  1 1384      -1.00000000  4.14388079E-09       2.00000000
  1 1388      -2.00000000  4.18587254E-09       2.00000000
  1 1389       0.00000000  5.04191844E-09       2.00000000