# File generated by Flopy version 3.9.1 on 02/09/2026 at 21:54:34.
BEGIN options
  FIXED_CELL
  PRINT_FLOWS
  SAVE_FLOWS
END options

BEGIN dimensions
  MAXBOUND  3044
END dimensions

BEGIN period  1
  1 1 7.18330062E-09
  1 2 7.18536345E-09
  1 3 7.22024349E-09
  1 4 7.34315702E-09
  1 5 7.53576882E-09
  1 6 7.63331613E-09
  1 7 7.75241012E-09
  1 8 7.84976416E-09
  1 9 7.93211787E-09
  1 10 7.97622782E-09
  1 11 7.89712282E-09
  1 12 7.77146520E-09
  1 13 7.53271346E-09
  1 14 7.45139847E-09
  1 15 7.44290589E-09
  1 16 7.44296236E-09
  1 17 7.44179326E-09
  1 18 7.44191630E-09
  1 19 7.44119550E-09
  1 20 7.44154083E-09
  1 21 7.44220518E-09
  1 22 7.44313733E-09
  1 23 7.44407089E-09
  1 24 7.44354316E-09
  1 25 7.44268816E-09
  1 26 7.44235479E-09
  1 27 7.44267260E-09
  1 28 7.44354291E-09
  1 29 7.44271500E-09
  1 30 7.44521585E-09
  1 31 7.50468265E-09
  1 32 7.79544649E-09
  1 33 7.92545389E-09
  1 34 7.98829997E-09
  1 35 9.69449001E-09
  1 36 9.63597566E-09
  1 37 9.82976912E-09
  1 38 9.81613986E-09
  1 39 9.80989720E-09
  1 40 9.81599736E-09
  1 41 9.81224543E-09
  1 42 9.81490469E-09
  1 43 9.89723932E-09
  1 44 9.90520383E-09
  1 45 9.88378506E-09
  1 46 9.88309126E-09
  1 47 9.90537646E-09
  1 48 9.92302650E-09
  1 49 9.92814323E-09
  1 50 9.81119532E-09
  1 51 9.86561039E-09
  1 52 9.89469082E-09
  1 53 9.91075644E-09
  1 54 9.91289607E-09
  1 55 9.91974904E-09
  1 56 9.90637923E-09
  1 57 9.89354864E-09
  1 58 9.89790885E-09
  1 59 9.88963527E-09
  1 60 9.90936373E-09
  1 61 9.78154372E-09
  1 62 9.78697886E-09
  1 63 9.73661257E-09
  1 64 9.68723878E-09
  1 65 9.67806553E-09
  1 66 9.67351776E-09
  1 67 9.66602020E-09
  1 68 9.64404667E-09
  1 69 9.64484177E-09
  1 70 9.64257914E-09
  1 71 9.63797160E-09
  1 72 9.63700419E-09
  1 73 9.63669203E-09
  1 74 9.62981299E-09
  1 75 9.62109625E-09
  1 76 9.59897801E-09
  1 77 9.51681486E-09
  1 78 9.51572341E-09
  1 79 9.53615299E-09
  1 80 9.53724066E-09
  1 81 9.53390444E-09
  1 82 9.53955929E-09
  1 83 9.53905418E-09
  1 84 9.54190650E-09
  1 85 9.50992715E-09
  1 86 9.51105472E-09
  1 87 9.54471872E-09
  1 88 9.55279118E-09
  1 89 9.55243013E-09
  1 90 9.55008455E-09
  1 91 9.55160688E-09
  1 92 9.55546152E-09
  1 93 9.55637128E-09
  1 94 9.56677041E-09
  1 95 9.56653541E-09
  1 96 9.57756002E-09
  1 97 9.54928612E-09
  1 98 9.56188162E-09
  1 99 9.56184766E-09
  1 100 9.56749863E-09
  1 101 9.56879775E-09
  1 102 9.56647048E-09
  1 103 9.57715042E-09
  1 104 9.57751235E-09
  1 105 9.56109364E-09
  1 106 9.57371562E-09
  1 107 9.57037278E-09
  1 108 9.57797582E-09
  1 109 9.57445704E-09
  1 110 9.56907666E-09
  1 111 9.56424659E-09
  1 112 9.56896835E-09
  1 113 9.56337318E-09
  1 114 9.56545145E-09
  1 115 9.55280321E-09
  1 116 9.55453031E-09
  1 117 9.55460527E-09
  1 118 9.56054348E-09
  1 119 9.56316245E-09
  1 120 9.56706504E-09
  1 121 9.56935187E-09
  1 122 9.58083579E-09
  1 123 9.57818568E-09
  1 124 9.57206639E-09
  1 125 9.56751090E-09
  1 126 9.53902432E-09
  1 127 9.52951154E-09
  1 128 9.54168636E-09
  1 129 9.53655646E-09
  1 130 9.61756169E-09
  1 131 9.56661286E-09
  1 132 9.57234589E-09
  1 133 9.56388294E-09
  1 134 9.57973769E-09
  1 135 9.54426883E-09
  1 136 9.49306618E-09
  1 137 9.48143149E-09
  1 138 9.47330263E-09
  1 139 9.43794609E-09
  1 140 9.41511660E-09
  1 141 9.37722861E-09
  1 142 9.37809933E-09
  1 143 9.33136779E-09
  1 144 9.31189742E-09
  1 145 9.37928795E-09
  1 146 9.34513851E-09
  1 147 9.36945853E-09
  1 148 9.33448821E-09
  1 149 9.30656883E-09
  1 150 9.26855108E-09
  1 151 9.24888987E-09
  1 152 9.20720591E-09
  1 153 9.13755282E-09
  1 154 9.08581479E-09
  1 155 8.96342535E-09
  1 156 9.04204183E-09
  1 157 9.04218161E-09
  1 158 9.09091100E-09
  1 159 9.06114319E-09
  1 160 8.99777204E-09
  1 161 8.97129793E-09
  1 162 8.89393657E-09
  1 163 8.89773707E-09
  1 164 8.78611611E-09
  1 165 8.82407667E-09
  1 166 8.85993272E-09
  1 167 8.87335641E-09
  1 168 8.82798537E-09
  1 169 8.79175541E-09
  1 170 8.72168157E-09
  1 171 8.73243102E-09
  1 172 8.68971576E-09
  1 173 8.72989633E-09
  1 174 8.75482554E-09
  1 175 8.63384232E-09
  1 176 8.62381718E-09
  1 177 8.65743848E-09
  1 178 8.66721117E-09
  1 179 8.68830190E-09
  1 180 8.66075617E-09
  1 181 8.65426894E-09
  1 182 8.70271293E-09
  1 183 8.74473637E-09
  1 184 8.94830342E-09
  1 185 8.93955775E-09
  1 186 9.00726102E-09
  1 187 9.13113624E-09
  1 188 9.13450488E-09
  1 189 9.18138614E-09
  1 190 9.18108805E-09
  1 191 9.35853887E-09
  1 192 9.07472227E-09
  1 193 9.07998697E-09
  1 194 9.12101804E-09
  1 195 9.12305332E-09
  1 196 9.13064874E-09
  1 197 9.14134073E-09
  1 198 9.09598486E-09
  1 199 9.03714866E-09
  1 200 9.04520721E-09
  1 201 9.00171868E-09
  1 202 9.00784221E-09
  1 203 8.98281637E-09
  1 204 8.96715996E-09
  1 205 1.01384487E-08
  1 206 1.01916505E-08
  1 207 1.08155187E-08
  1 208 1.11710928E-08
  1 209 1.14976092E-08
  1 210 1.15309392E-08
  1 211 1.15624000E-08
  1 212 1.15015690E-08
  1 213 1.14599625E-08
  1 214 1.14215251E-08
  1 215 1.13993835E-08
  1 216 1.14284345E-08
  1 217 1.12468717E-08
  1 218 1.09121256E-08
  1 219 1.10527084E-08
  1 220 1.07952472E-08
  1 221 1.08197698E-08
  1 222 1.08491596E-08
  1 223 1.08742607E-08
  1 224 1.09268649E-08
  1 225 1.09110350E-08
  1 226 1.08156182E-08
  1 227 1.08225253E-08
  1 228 1.07458165E-08
  1 229 1.04930538E-08
  1 230 1.02663182E-08
  1 231 1.01084758E-08
  1 232 9.95535754E-09
  1 233 9.84499123E-09
  1 234 9.91108782E-09
  1 235 9.15834095E-09
  1 236 8.86326073E-09
  1 237 8.78574632E-09
  1 238 8.54671070E-09
  1 239 8.51354081E-09
  1 240 8.50154159E-09
  1 241 8.40619687E-09
  1 242 8.28055711E-09
  1 243 8.36234968E-09
  1 244 8.37256119E-09
  1 245 7.90709510E-09
  1 246 7.99562271E-09
  1 247 7.93422362E-09
  1 248 7.93283869E-09
  1 249 7.90293428E-09
  1 250 7.89767845E-09
  1 251 7.89320473E-09
  1 252 7.89303911E-09
  1 253 7.89310792E-09
  1 254 7.88762602E-09
  1 255 7.86783631E-09
  1 256 7.84687881E-09
  1 257 7.65700542E-09
  1 258 7.63656987E-09
  1 259 7.43591384E-09
  1 260 7.36689383E-09
  1 261 7.33229286E-09
  1 262 7.27820966E-09
  1 263 7.22189106E-09
  1 264 7.17973882E-09
  1 265 7.14844732E-09
  1 266 7.01995870E-09
  1 267 6.99139106E-09
  1 268 6.92216303E-09
  1 269 6.83130552E-09
  1 270 6.56889116E-09
  1 271 6.49333770E-09
  1 272 6.36759583E-09
  1 273 6.29669978E-09
  1 274 5.96871638E-09
  1 275 5.84289070E-09
  1 276 5.79708656E-09
  1 277 5.66382229E-09
  1 278 5.55569094E-09
  1 279 5.53861084E-09
  1 280 5.53655340E-09
  1 281 5.53709179E-09
  1 282 5.53453155E-09
  1 283 5.53421471E-09
  1 284 5.53154229E-09
  1 285 5.53063976E-09
  1 286 5.52961514E-09
  1 287 5.52734338E-09
  1 288 5.52683660E-09
  1 289 5.52589472E-09
  1 290 5.52250574E-09
  1 291 5.53353259E-09
  1 292 5.53584689E-09
  1 293 5.51060190E-09
  1 294 5.50144456E-09
  1 295 5.49937006E-09
  1 296 5.50003482E-09
  1 297 5.49937352E-09
  1 298 5.49926318E-09
  1 299 5.53004733E-09
  1 300 5.66351639E-09
  1 301 5.85455243E-09
  1 302 6.18605432E-09
  1 303 6.41162336E-09
  1 304 6.54353241E-09
  1 305 6.58264267E-09
  1 306 6.59805278E-09
  1 307 6.63022102E-09
  1 308 6.63020135E-09
  1 309 6.65163885E-09
  1 310 6.72283250E-09
  1 311 6.72285625E-09
  1 312 6.71651383E-09
  1 313 6.71266424E-09
  1 314 6.70941927E-09
  1 315 6.70601267E-09
  1 316 6.67297757E-09
  1 317 6.62742783E-09
  1 318 6.62238033E-09
  1 319 6.62718516E-09
  1 320 6.57916667E-09
  1 321 6.39749174E-09
  1 322 6.37498700E-09
  1 323 6.26886100E-09
  1 324 6.21099952E-09
  1 325 5.95372605E-09
  1 326 5.86646486E-09
  1 327 5.57900032E-09
  1 328 5.56796734E-09
  1 329 5.46770519E-09
  1 330 5.45834859E-09
  1 331 5.44472103E-09
  1 332 5.44975138E-09
  1 333 5.44358806E-09
  1 334 5.41296583E-09
  1 335 5.41039178E-09
  1 336 5.43710846E-09
  1 337 5.40407429E-09
  1 338 5.40125556E-09
  1 339 5.32031161E-09
  1 340 5.17921244E-09
  1 341 5.05995739E-09
  1 342 5.05813595E-09
  1 343 5.08053173E-09
  1 344 5.05767167E-09
  1 345 5.05651580E-09
  1 346 5.23085040E-09
  1 347 5.29037355E-09
  1 348 5.44727259E-09
  1 349 5.49115909E-09
  1 350 5.50631458E-09
  1 351 5.53600553E-09
  1 352 5.55461317E-09
  1 353 5.55930435E-09
  1 354 5.54867256E-09
  1 355 5.55377719E-09
  1 356 5.55809218E-09
  1 357 5.56885271E-09
  1 358 5.58036396E-09
  1 359 5.56776636E-09
  1 360 5.58849910E-09
  1 361 5.59578589E-09
  1 362 5.61038287E-09
  1 363 5.60518502E-09
  1 364 5.62531140E-09
  1 365 5.65412717E-09
  1 366 5.65119466E-09
  1 367 5.65690236E-09
  1 368 5.65657776E-09
  1 369 5.62970555E-09
  1 370 5.61146923E-09
  1 371 5.60452649E-09
  1 372 5.59345802E-09
  1 373 5.05628877E-09
  1 374 5.06944495E-09
  1 375 5.23124707E-09
  1 376 5.23170565E-09
  1 377 5.23376010E-09
  1 378 5.23174214E-09
  1 379 5.23439803E-09
  1 380 5.45354805E-09
  1 381 5.65466418E-09
  1 382 5.75895134E-09
  1 383 6.38775426E-09
  1 384 6.51916415E-09
  1 385 6.79931707E-09
  1 386 6.69419650E-09
  1 387 6.51693430E-09
  1 388 4.70967700E-09
  1 389 4.61887326E-09
  1 390 4.62081024E-09
  1 391 4.39907228E-09
  1 392 4.15336481E-09
  1 393 4.08254864E-09
  1 394 4.08899253E-09
  1 395 4.08376112E-09
  1 396 4.09252416E-09
  1 397 4.99097302E-09
  1 398 5.30325529E-09
  1 399 5.64826739E-09
  1 400 6.06275707E-09
  1 401 6.54018730E-09
  1 402 6.57652733E-09
  1 403 6.56605815E-09
  1 404 6.57885023E-09
  1 405 6.58357457E-09
  1 406 6.65440863E-09
  1 407 6.59700496E-09
  1 408 6.57870455E-09
  1 409 6.61288680E-09
  1 410 6.67873201E-09
  1 411 7.05619794E-09
  1 412 7.18566010E-09
  1 413 7.18911358E-09
  1 414 7.18222740E-09
  1 415 7.23544052E-09
  1 416 7.22635991E-09
  1 417 7.22683087E-09
  1 418 7.12233668E-09
  1 419 6.82451277E-09
  1 420 6.39385252E-09
  1 421 6.41347254E-09
  1 422 6.36182300E-09
  1 423 6.06372360E-09
  1 424 5.87570364E-09
  1 425 5.46012718E-09
  1 426 4.42714591E-09
  1 427 4.25432761E-09
  1 428 4.07299933E-09
  1 429 4.07347221E-09
  1 430 4.07128506E-09
  1 431 4.08060618E-09
  1 432 4.09325947E-09
  1 433 4.12138653E-09
  1 434 4.12920541E-09
  1 435 4.12097206E-09
  1 436 4.13389834E-09
  1 437 4.13165661E-09
  1 438 4.16100040E-09
  1 439 4.26700649E-09
  1 440 4.45774714E-09
  1 441 4.71158557E-09
  1 442 4.89773516E-09
  1 443 4.90784386E-09
  1 444 4.92003898E-09
  1 445 4.94336497E-09
  1 446 4.95373355E-09
  1 447 4.92946984E-09
  1 448 4.94414390E-09
  1 449 5.26403546E-09
  1 450 5.36223118E-09
  1 451 5.46188068E-09
  1 452 5.58068960E-09
  1 453 5.68021301E-09
  1 454 5.77148009E-09
  1 455 5.95787081E-09
  1 456 5.95670266E-09
  1 457 5.94035332E-09
  1 458 5.91863211E-09
  1 459 5.89785503E-09
  1 460 5.90886603E-09
  1 461 5.90050876E-09
  1 462 5.90854700E-09
  1 463 5.85869136E-09
  1 464 5.86930736E-09
  1 465 5.80232408E-09
  1 466 5.94448312E-09
  1 467 6.36962680E-09
  1 468 6.65049720E-09
  1 469 6.87325770E-09
  1 470 7.16693516E-09
  1 471 7.17990214E-09
  1 472 7.21260248E-09
  1 473 7.23585456E-09
  1 474 7.23325448E-09
  1 475 7.22437107E-09
  1 476 7.22299071E-09
  1 477 7.25105110E-09
  1 478 7.35224982E-09
  1 479 7.38419387E-09
  1 480 7.38672104E-09
  1 481 7.40415530E-09
  1 482 7.42556699E-09
  1 483 7.42876208E-09
  1 484 7.42774297E-09
  1 485 7.43834843E-09
  1 486 7.44277629E-09
  1 487 7.46476844E-09
  1 488 7.70278176E-09
  1 489 7.71435995E-09
  1 490 7.71648585E-09
  1 491 7.71747663E-09
  1 492 7.72187946E-09
  1 493 7.72603323E-09
  1 494 7.72739571E-09
  1 495 7.73084987E-09
  1 496 7.73411078E-09
  1 497 7.73820887E-09
  1 498 7.73861932E-09
  1 499 7.74023782E-09
  1 500 7.74549760E-09
  1 501 7.74738494E-09
  1 502 7.75155138E-09
  1 503 7.76609583E-09
  1 504 7.77144264E-09
  1 505 7.77717305E-09
  1 506 7.78364836E-09
  1 507 7.78674837E-09
  1 508 7.79217760E-09
  1 509 7.79712498E-09
  1 510 7.80040175E-09
  1 511 7.79969673E-09
  1 512 7.79847642E-09
  1 513 7.79653792E-09
  1 514 7.79358989E-09
  1 515 7.79094391E-09
  1 516 7.77956235E-09
  1 517 7.75136559E-09
  1 518 7.73027331E-09
  1 519 7.72285165E-09
  1 520 7.70725263E-09
  1 521 7.70111767E-09
  1 522 7.68537841E-09
  1 523 7.68987902E-09
  1 524 7.68769856E-09
  1 525 7.68543171E-09
  1 526 7.68035037E-09
  1 527 7.67295836E-09
  1 528 7.66508501E-09
  1 529 7.66501656E-09
  1 530 7.67133328E-09
  1 531 7.64054093E-09
  1 532 7.64466181E-09
  1 533 7.64113726E-09
  1 534 7.64398247E-09
  1 535 7.63858430E-09
  1 536 7.63418564E-09
  1 537 7.62898530E-09
  1 538 7.62003231E-09
  1 539 7.61296306E-09
  1 540 7.60087748E-09
  1 541 7.58259967E-09
  1 542 7.58853632E-09
  1 543 7.58346241E-09
  1 544 7.58151780E-09
  1 545 7.56985526E-09
  1 546 7.55777354E-09
  1 547 7.55921490E-09
  1 548 7.54782736E-09
  1 549 7.53910109E-09
  1 550 7.53588917E-09
  1 551 7.53182431E-09
  1 552 7.52614933E-09
  1 553 7.52046414E-09
  1 554 7.49827865E-09
  1 555 7.48543352E-09
  1 556 7.47696951E-09
  1 557 7.47698604E-09
  1 558 7.47023087E-09
  1 559 7.46805636E-09
  1 560 7.46358724E-09
  1 561 7.45311650E-09
  1 562 7.43025236E-09
  1 563 7.43038400E-09
  1 564 7.42003760E-09
  1 565 7.41642932E-09
  1 566 7.40210854E-09
  1 567 7.38521780E-09
  1 568 7.35777462E-09
  1 569 7.35980038E-09
  1 570 7.34433904E-09
  1 571 7.31200563E-09
  1 572 7.29612607E-09
  1 573 7.30275358E-09
  1 574 7.29238306E-09
  1 575 7.29931264E-09
  1 576 7.28449582E-09
  1 577 7.27551433E-09
  1 578 7.27575911E-09
  1 579 7.26979193E-09
  1 580 7.25732660E-09
  1 581 7.23910086E-09
  1 582 7.22254537E-09
  1 583 7.21476358E-09
  1 584 7.20609537E-09
  1 585 7.20959126E-09
  1 586 7.18005123E-09
  1 587 7.17637091E-09
  1 588 7.16002740E-09
  1 589 7.12979457E-09
  1 590 7.12798699E-09
  1 591 7.11697927E-09
  1 592 7.10123907E-09
  1 593 7.08368126E-09
  1 594 7.07219247E-09
  1 595 7.02566128E-09
  1 596 7.02766863E-09
  1 597 7.00953637E-09
  1 598 6.98051737E-09
  1 599 6.97020077E-09
  1 600 6.91807498E-09
  1 601 6.90453140E-09
  1 602 6.87417915E-09
  1 603 6.86121072E-09
  1 604 6.84326393E-09
  1 605 6.82732173E-09
  1 606 6.80995259E-09
  1 607 6.78507839E-09
  1 608 6.77566206E-09
  1 609 6.73419768E-09
  1 610 6.74214022E-09
  1 611 6.70652525E-09
  1 612 6.69718280E-09
  1 613 6.66896731E-09
  1 614 6.60693193E-09
  1 615 6.62847174E-09
  1 616 6.63714026E-09
  1 617 6.49000966E-09
  1 618 6.47328838E-09
  1 619 6.46094924E-09
  1 620 6.46374076E-09
  1 621 6.44235745E-09
  1 622 6.37534301E-09
  1 623 6.05843922E-09
  1 624 5.89359990E-09
  1 625 5.71318804E-09
  1 626 5.68527878E-09
  1 627 5.68273692E-09
  1 628 5.69407326E-09
  1 629 5.67993693E-09
  1 630 5.67738824E-09
  1 631 5.68828071E-09
  1 632 5.72744537E-09
  1 633 5.68407787E-09
  1 634 5.67200215E-09
  1 635 5.69087086E-09
  1 636 5.72925686E-09
  1 637 5.80178400E-09
  1 638 5.89973352E-09
  1 639 6.22713158E-09
  1 640 6.82724507E-09
  1 641 7.18481972E-09
  1 642 7.16948809E-09
  1 643 7.44240318E-09
  1 644 7.44366717E-09
  1 645 7.44214493E-09
  1 646 7.44313743E-09
  1 647 9.51077903E-09
  1 648 9.57030007E-09
  1 649 9.56788656E-09
  1 650 9.55837743E-09
  1 651 9.57139208E-09
  1 652 9.00314644E-09
  1 653 8.80281570E-09
  1 654 8.81002192E-09
  1 655 8.67437903E-09
  1 656 8.85369209E-09
  1 657 9.11307033E-09
  1 658 8.13979039E-09
  1 659 7.89308224E-09
  1 660 5.53610043E-09
  1 661 5.49977846E-09
  1 662 6.69256941E-09
  1 663 6.62566543E-09
  1 664 5.44648353E-09
  1 665 5.42164401E-09
  1 666 5.40260058E-09
  1 667 5.14139113E-09
  1 668 5.54507854E-09
  1 669 5.57419418E-09
  1 670 5.65659705E-09
  1 671 5.34880114E-09
  1 672 5.23293172E-09
  1 673 4.08575938E-09
  1 674 6.57214341E-09
  1 675 6.58117884E-09
  1 676 6.58575012E-09
  1 677 6.60629890E-09
  1 678 4.12511131E-09
  1 679 4.12455578E-09
  1 680 5.95155626E-09
  1 681 5.92311656E-09
  1 682 5.88104291E-09
  1 683 5.89987313E-09
  1 684 7.23730507E-09
  1 685 7.52337891E-09
  1 686 7.47695661E-09
  1 687 7.45666618E-09
  1 688 7.42389702E-09
  1 689 7.28130028E-09
  1 690 7.04304867E-09
  1 691 6.56401782E-09
  1 692 6.46164734E-09
  1 693 5.68832870E-09
  1 694 7.17627755E-09
  1 695 7.44339409E-09
  1 696 5.23225646E-09
  1 697 6.57432330E-09
  1 698 4.12268055E-09
  1 699 7.44385018E-09
  1 700 7.44289895E-09
  1 701 7.44315204E-09
  1 702 9.51261663E-09
  1 703 5.20517610E-09
  1 704 5.47599198E-09
  1 705 9.55563777E-09
  1 706 5.65655210E-09
  1 707 5.57087689E-09
  1 708 8.81308237E-09
  1 709 5.49956424E-09
  1 710 7.89309507E-09
  1 711 8.90082780E-09
  1 712 9.12713964E-09
  1 713 8.20323677E-09
  1 714 7.89314553E-09
  1 715 5.53616856E-09
  1 716 5.49977276E-09
  1 717 5.44558816E-09
  1 718 6.62550793E-09
  1 719 5.44573784E-09
  1 720 5.42296713E-09
  1 721 5.54048375E-09
  1 722 5.09732776E-09
  1 723 5.55386303E-09
  1 724 5.57580504E-09
  1 725 5.65256089E-09
  1 726 5.37155171E-09
  1 727 5.23294320E-09
  1 728 4.08602870E-09
  1 729 6.57030163E-09
  1 730 6.58000618E-09
  1 731 6.59933640E-09
  1 732 6.50392246E-09
  1 733 4.12567965E-09
  1 734 4.12867324E-09
  1 735 5.92511604E-09
  1 736 5.90156953E-09
  1 737 5.85153566E-09
  1 738 7.23021948E-09
  1 739 7.46012611E-09
  1 740 7.27838523E-09
  1 741 5.41399254E-09
  1 742 6.60071203E-09
  1 743 7.18045147E-09
  1 744 5.68916923E-09
  1 745 7.17654703E-09
  1 746 7.44352860E-09
  1 747 5.53564976E-09
  1 748 6.57542229E-09
  1 749 7.44369464E-09
  1 750 7.44386518E-09
  1 751 5.12829943E-09
  1 752 7.44292771E-09
  1 753 5.27935887E-09
  1 754 5.18638934E-09
  1 755 5.46934282E-09
  1 756 9.55423219E-09
  1 757 5.65655616E-09
  1 758 5.57250955E-09
  1 759 8.92459927E-09
  1 760 5.20874878E-09
  1 761 7.89317512E-09
  1 762 5.53765069E-09
  1 763 5.49956415E-09
  1 764 4.12647411E-09
  1 765 5.65331938E-09
  1 766 5.44465043E-09
  1 767 5.57228292E-09
  1 768 5.07633796E-09
  1 769 5.54978879E-09
  1 770 5.57720187E-09
  1 771 5.65671351E-09
  1 772 5.33175167E-09
  1 773 5.23228132E-09
  1 774 6.57454855E-09
  1 775 6.56907632E-09
  1 776 6.57942612E-09
  1 777 4.12347259E-09
  1 778 6.44984252E-09
  1 779 4.12701826E-09
  1 780 4.13280272E-09
  1 781 5.24282451E-09
  1 782 5.87581493E-09
  1 783 5.82791627E-09
  1 784 5.38186180E-09
  1 785 5.44532970E-09
  1 786 7.27561050E-09
  1 787 5.40998428E-09
  1 788 5.09093053E-09
  1 789 7.18261125E-09
  1 790 5.50607480E-09
  1 791 7.17986622E-09
  1 792 7.44359737E-09
  1 793 5.56476688E-09
  1 794 5.16676572E-09
  1 795 7.44361839E-09
  1 796 7.44376521E-09
  1 797 5.11911797E-09
  1 798 5.31467132E-09
  1 799 5.26096135E-09
  1 800 5.48028191E-09
  1 801 5.33187803E-09
  1 802 5.13021191E-09
  1 803 5.14747876E-09
  1 804 8.93646937E-09
  1 805 5.27576271E-09
  1 806 5.24598343E-09
  1 807 5.18603159E-09
  1 808 5.29716785E-09
  1 809 7.18156900E-09
  1 810 5.49110081E-09
  1 811 5.49966885E-09
  1 812 5.65371716E-09
  1 813 5.65656570E-09
  1 814 5.52092217E-09
  1 815 5.57055631E-09
  1 816 5.06625628E-09
  1 817 5.07314969E-09
  1 818 5.35183682E-09
  1 819 5.57567879E-09
  1 820 5.65185240E-09
  1 821 5.10938678E-09
  1 822 6.57669255E-09
  1 823 5.42875838E-09
  1 824 5.39092462E-09
  1 825 5.84869000E-09
  1 826 4.13213858E-09
  1 827 4.12602952E-09
  1 828 4.13114929E-09
  1 829 5.22412455E-09
  1 830 5.86370278E-09
  1 831 5.82703779E-09
  1 832 5.36545660E-09
  1 833 5.46073866E-09
  1 834 7.27694427E-09
  1 835 5.39803460E-09
  1 836 5.08671093E-09
  1 837 7.18370939E-09
  1 838 5.52122129E-09
  1 839 7.17834027E-09
  1 840 5.55026317E-09
  1 841 5.57916431E-09
  1 842 5.16388435E-09
  1 843 7.44371594E-09
  1 844 7.44377190E-09
  1 845 5.31127060E-09
  1 846 5.26124217E-09
  1 847 7.18315880E-09
  1 848 5.09199171E-09
  1 849 5.32331103E-09
  1 850 5.38127910E-09
  1 851 5.13786642E-09
  1 852 5.43804647E-09
  1 853 5.28309256E-09
  1 854 5.15262451E-09
  1 855 7.18243121E-09
  1 856 7.18071401E-09
  1 857 5.28830186E-09
  1 858 7.18152528E-09
  1 859 5.49874467E-09
  1 860 5.49966621E-09
  1 861 5.41940537E-09
  1 862 5.06458811E-09
  1 863 5.08194094E-09
  1 864 5.06134019E-09
  1 865 5.07125765E-09
  1 866 5.34184222E-09
  1 867 5.57403251E-09
  1 868 5.10008857E-09
  1 869 5.11879863E-09
  1 870 5.10814390E-09
  1 871 6.57323034E-09
  1 872 5.42975239E-09
  1 873 5.85901832E-09
  1 874 5.38997614E-09
  1 875 5.46838404E-09
  1 876 5.35716126E-09
  1 877 5.37368937E-09
  1 878 5.86976575E-09
  1 879 5.83931388E-09
  1 880 5.36173881E-09
  1 881 5.45834031E-09
  1 882 5.40603936E-09
  1 883 5.40049184E-09
  1 884 5.36665617E-09
  1 885 5.27033880E-09
  1 886 5.17514634E-09
  1 887 7.18432689E-09
  1 888 7.17938980E-09
  1 889 7.17819225E-09
  1 890 5.58632401E-09
  1 891 5.57816027E-09
  1 892 5.15711752E-09
  1 893 5.32156205E-09
  1 894 7.44381495E-09
  1 895 5.30087501E-09
  1 896 5.30595735E-09
  1 897 5.26838514E-09
  1 898 7.17902564E-09
  1 899 5.32666942E-09
  1 900 5.31032371E-09
  1 901 5.30157211E-09
  1 902 7.17944503E-09
  1 903 7.18288465E-09
  1 904 5.35679917E-09
  1 905 5.38611187E-09
  1 906 5.36958066E-09
  1 907 7.18098685E-09
  1 908 7.18206675E-09
  1 909 5.28384001E-09
  1 910 7.18286501E-09
  1 911 7.18114060E-09
  1 912 5.29274446E-09
  1 913 7.18199920E-09
  1 914 5.85385906E-09
  1 915 5.34685131E-09
  1 916 5.41470354E-09
  1 917 5.33680914E-09
  1 918 5.08641285E-09
  1 919 5.08149106E-09
  1 920 5.06040358E-09
  1 921 5.06883818E-09
  1 922 5.34037408E-09
  1 923 5.57643551E-09
  1 924 5.09549030E-09
  1 925 5.42189623E-09
  1 926 5.10271358E-09
  1 927 5.43756294E-09
  1 928 5.43341035E-09
  1 929 5.86416776E-09
  1 930 5.85762607E-09
  1 931 5.37778298E-09
  1 932 5.35298943E-09
  1 933 5.37642587E-09
  1 934 5.84543158E-09
  1 935 5.83832260E-09
  1 936 5.36131689E-09
  1 937 5.45305439E-09
  1 938 5.40524719E-09
  1 939 5.41002227E-09
  1 940 5.39571779E-09
  1 941 5.27485845E-09
  1 942 7.18381247E-09
  1 943 5.17640820E-09
  1 944 7.18426303E-09
  1 945 7.17991911E-09
  1 946 7.17730285E-09
  1 947 5.58333651E-09
  1 948 5.57197870E-09
  1 949 5.31642921E-09
  1 950 5.31900037E-09
  1 951 7.44381092E-09
  1 952 5.29563759E-09
  1 953 5.30608594E-09
  1 954 7.17860804E-09
  1 955 7.17886352E-09
  1 956 5.32760351E-09
  1 957 7.17965540E-09
  1 958 7.18135458E-09
  1 959 7.18092708E-09
  1 960 7.18308259E-09
  1 961 5.38592609E-09
  1 962 7.18264788E-09
  1 963 7.18125569E-09
  1 964 7.18179563E-09
  1 965 5.28673922E-09
  1 966 7.18233862E-09
  1 967 7.18071878E-09
  1 968 5.07751859E-09
  1 969 5.41795045E-09
  1 970 5.33613481E-09
  1 971 5.34459611E-09
  1 972 5.57491591E-09
  1 973 5.42583012E-09
  1 974 5.42409018E-09
  1 975 5.43366325E-09
  1 976 7.17782005E-09
  1 977 5.84351118E-09
  1 978 5.83318260E-09
  1 979 7.17965408E-09
  1 980 5.45281473E-09
  1 981 5.40204355E-09
  1 982 7.18018491E-09
  1 983 5.39401221E-09
  1 984 7.18406936E-09
  1 985 7.18355623E-09
  1 986 7.18343372E-09
  1 987 7.18398583E-09
  1 988 7.18484388E-09
  1 989 7.18028922E-09
  1 990 7.17736605E-09
  1 991 5.57297026E-09
  1 992 7.17860151E-09
  1 993 7.17912628E-09
  1 994 7.17881661E-09
  1 995 7.17923511E-09
  1 996 7.18112118E-09
  1 997 7.18178388E-09
  1 998 7.18221498E-09
  1 999 5.83624994E-09
  1 1000 7.17807978E-09
  1 1001 5.84237443E-09
  1 1002 5.83312429E-09
  1 1003 7.17952184E-09
  1 1004 7.18031809E-09
  1 1005 7.17871227E-09
  1 1006 7.17777825E-09
  1 1007 7.18050139E-09
  1 1008 7.18458506E-09
  1 1009 7.18454099E-09
  1 1010 7.18007749E-09
  1 1011 7.17678869E-09
  1 1012 7.17899480E-09
  1 1013 7.17873242E-09
  1 1014 7.17925794E-09
  1 1015 7.17847079E-09
  1 1016 7.17794982E-09
  1 1017 7.17820993E-09
  1 1018 7.17839992E-09
  1 1019 5.83011189E-09
  1 1020 7.17798502E-09
  1 1021 7.17757192E-09
  1 1022 7.17756107E-09
  1 1023 7.18005192E-09
  1 1024 7.18510334E-09
  1 1025 7.17704539E-09
  1 1026 7.17695564E-09
  1 1027 7.17829603E-09
  1 1028 5.83052149E-09
  1 1029 7.17743187E-09
  1 1030 7.17769046E-09
  1 1031 7.17788158E-09
  1 1032 7.17716062E-09
  1 1033 7.17717403E-09
  1 1034 7.17653274E-09
  1 1035 7.17666062E-09
  1 1036 7.17705807E-09
  1 1037 7.17691695E-09
  1 1038 7.17746893E-09
  1 1039 7.17675111E-09
  1 1040 7.17726328E-09
  1 1041 7.17685332E-09
  1 1042 7.17640505E-09
  1 1043 7.17664902E-09
  1 1044 5.23196543E-09
  1 1045 5.23199632E-09
  1 1046 5.23259700E-09
  1 1047 5.23257860E-09
  1 1048 5.23241365E-09
  1 1049 5.23243533E-09
  1 1050 5.23276629E-09
  1 1051 5.23275129E-09
  1 1052 5.23266398E-09
  1 1053 5.23268069E-09
  1 1054 5.23285380E-09
  1 1055 5.23284054E-09
  1 1056 5.23251521E-09
  1 1057 5.23249515E-09
  1 1058 7.18548234E-09
  1 1059 5.23210705E-09
  1 1060 5.23213497E-09
  1 1061 5.23235737E-09
  1 1062 5.23233408E-09
  1 1063 6.62634407E-09
  1 1064 6.62654419E-09
  1 1065 6.62771602E-09
  1 1066 6.62698540E-09
  1 1067 6.62676400E-09
  1 1068 6.62697442E-09
  1 1069 6.62720646E-09
  1 1070 5.49946658E-09
  1 1071 5.49946464E-09
  1 1072 5.23183163E-09
  1 1073 5.23186537E-09
  1 1074 7.89544847E-09
  1 1075 5.05895336E-09
  1 1076 5.06973337E-09
  1 1077 5.06952377E-09
  1 1078 5.23156197E-09
  1 1079 5.44515104E-09
  1 1080 5.44411610E-09
  1 1081 7.44301668E-09
  1 1082 7.44303843E-09
  1 1083 7.44278426E-09
  1 1084 7.44281990E-09
  1 1085 5.44603233E-09
  1 1086 5.44519103E-09
  1 1087 7.89432831E-09
  1 1088 5.05602369E-09
  1 1089 5.06385796E-09
  1 1090 5.06352399E-09
  1 1091 7.89326354E-09
  1 1092 5.06057863E-09
  1 1093 5.06097701E-09
  1 1094 5.05912025E-09
  1 1095 5.05955140E-09
  1 1096 5.49925644E-09
  1 1097 5.42829982E-09
  1 1098 5.45114406E-09
  1 1099 5.49919164E-09
  1 1100 5.43595008E-09
  1 1101 5.44783498E-09
  1 1102 5.44625364E-09
  1 1103 5.44281234E-09
  1 1104 7.44253308E-09
  1 1105 6.57241824E-09
  1 1106 6.57060374E-09
  1 1107 6.57348168E-09
  1 1108 6.57137205E-09
  1 1109 6.56983850E-09
  1 1110 6.57135822E-09
  1 1111 7.44307765E-09
  1 1112 7.20292183E-09
  1 1113 7.01510356E-09
  1 1114 7.44330091E-09
  1 1115 7.19417222E-09
  1 1116 7.10232468E-09
  1 1117 7.44341966E-09
  1 1118 7.18977523E-09
  1 1119 7.14416946E-09
  1 1120 7.18757118E-09
  1 1121 7.16464443E-09
  1 1122 7.17476959E-09
  1 1123 7.17980404E-09
  1 1124 7.18231422E-09
  1 1125 6.60449787E-09
  1 1126 6.65213828E-09
  1 1127 6.61616943E-09
  1 1128 6.64026995E-09
  1 1129 6.62175897E-09
  1 1130 6.63397104E-09
  1 1131 6.62449245E-09
  1 1132 6.63073002E-09
  1 1133 6.62584389E-09
  1 1134 6.62908658E-09
  1 1135 6.62825912E-09
  1 1136 6.55853741E-09
  1 1137 7.18939581E-09
  1 1138 6.62971277E-09
  1 1139 6.56757741E-09
  1 1140 6.57206363E-09
  1 1141 5.23129813E-09
  1 1142 5.23271201E-09
  1 1143 5.05702531E-09
  1 1144 7.89376695E-09
  1 1145 7.89038263E-09
  1 1146 7.44318653E-09
  1 1147 7.18202539E-09
  1 1148 5.23145593E-09
  1 1149 5.23214005E-09
  1 1150 5.05432056E-09
  1 1151 7.89174916E-09
  1 1152 5.23191969E-09
  1 1153 7.89242950E-09
  1 1154 7.89276895E-09
  1 1155 5.50004892E-09
  1 1156 7.89296143E-09
  1 1157 5.49961930E-09
  1 1158 5.49947206E-09
  1 1159 5.44105272E-09
  1 1160 7.44250228E-09
  1 1161 7.44371920E-09
  1 1162 6.62750245E-09
  1 1163 6.57263654E-09
  1 1164 5.03077360E-09
  1 1165 5.23154806E-09
  1 1166 7.44315524E-09
  1 1167 5.03658525E-09
  1 1168 7.44291962E-09
  1 1169 5.04488018E-09
  1 1170 5.04702104E-09
  1 1171 4.07981438E-09
  1 1172 7.89404716E-09
  1 1173 5.49895731E-09
  1 1174 5.04610943E-09
  1 1175 5.64284651E-09
  1 1176 5.67231637E-09
  1 1177 7.44264246E-09
  1 1178 7.44188982E-09
  1 1179 5.23082060E-09
  1 1180 5.64964033E-09
  1 1181 5.65309135E-09
  1 1182 5.54297043E-09
  1 1183 5.52862835E-09
  1 1184 5.52830056E-09
  1 1185 5.49860411E-09
  1 1186 4.07239709E-09
  1 1187 5.87980623E-09
  1 1188 7.26766437E-09
  1 1189 5.51351385E-09
  1 1190 5.51378363E-09
  1 1191 7.44236745E-09
  1 1192 5.67222856E-09
  1 1193 5.53966499E-09
  1 1194 6.63995711E-09
  1 1195 5.55752850E-09
  1 1196 5.25349331E-09
  1 1197 5.25207011E-09
  1 1198 7.30502497E-09
  1 1199 7.20052811E-09
  1 1200 6.63505921E-09
  1 1201 6.56368484E-09
  1 1202 5.49854996E-09
  1 1203 6.63516284E-09
  1 1204 7.19041669E-09
  1 1205 6.63458323E-09
  1 1206 5.45545948E-09
  1 1207 7.44150964E-09
  1 1208 5.54242195E-09
  1 1209 7.89322291E-09
  1 1210 7.44177819E-09
  1 1211 5.63977640E-09
  1 1212 5.65974593E-09
  1 1213 5.64258348E-09
  1 1214 5.65176674E-09
  1 1215 4.94240838E-09
  1 1216 7.44125132E-09
  1 1217 7.69736896E-09
  1 1218 9.55744875E-09
  1 1219 7.62445896E-09
  1 1220 4.10580909E-09
  1 1221 6.94526891E-09
  1 1222 4.07036287E-09
  1 1223 7.32873952E-09
  1 1224 6.63679495E-09
  1 1225 4.10990505E-09
  1 1226 7.99460483E-09
  1 1227 7.18964847E-09
  1 1228 4.14544604E-09
  1 1229 4.83339761E-09
  1 1230 7.50011039E-09
  1 1231 7.60766720E-09
  1 1232 7.38343663E-09
  1 1233 7.44160973E-09
  1 1234 5.42264907E-09
  1 1235 5.23264115E-09
  1 1236 4.08716577E-09
  1 1237 4.09357659E-09
  1 1238 5.53103851E-09
  1 1239 7.16853596E-09
  1 1240 7.21422216E-09
  1 1241 5.51799244E-09
  1 1242 7.44215592E-09
  1 1243 7.63605769E-09
  1 1244 7.90683204E-09
  1 1245 7.20329667E-09
  1 1246 7.48099457E-09
  1 1247 7.61032716E-09
  1 1248 4.08153010E-09
  1 1249 5.54817634E-09
  1 1250 7.62375655E-09
  1 1251 4.08054793E-09
  1 1252 4.07615976E-09
  1 1253 1.08671987E-08
  1 1254 8.52713049E-09
  1 1255 9.65005718E-09
  1 1256 7.71625738E-09
  1 1257 7.18735291E-09
  1 1258 7.20733261E-09
  1 1259 6.41908429E-09
  1 1260 7.89657384E-09
  1 1261 5.01133212E-09
  1 1262 5.66699430E-09
  1 1263 7.28047905E-09
  1 1264 5.61497849E-09
  1 1265 6.88624802E-09
  1 1266 7.22496238E-09
  1 1267 1.08633493E-08
  1 1268 9.64703309E-09
  1 1269 7.23221053E-09
  1 1270 1.08461582E-08
  1 1271 9.64553471E-09
  1 1272 1.08340599E-08
  1 1273 1.15955388E-08
  1 1274 6.69883465E-09
  1 1275 9.54417027E-09
  1 1276 9.50958276E-09
  1 1277 9.55459054E-09
  1 1278 5.10403820E-09
  1 1279 9.63530631E-09
  1 1280 7.74327013E-09
  1 1281 7.66901427E-09
  1 1282 7.68180374E-09
  1 1283 6.69369026E-09
  1 1284 5.23462926E-09
  1 1285 6.32999458E-09
  1 1286 6.63290881E-09
  1 1287 5.50747301E-09