# File generated by Flopy version 3.9.1 on 02/09/2026 at 21:54:33.
BEGIN options
  SAVE_FLOWS
END options

BEGIN packages
  DISV6  voronoi_caseA.disv  disv
  IC6  voronoi_caseA.ic  ic
  CHD6  voronoi_caseA.chd  chd
  NPF6  voronoi_caseA.npf  npf
  WEL6  voronoi_caseA.wel  well_package
  RCH6  voronoi_caseA.rch  rch
  EVT6  voronoi_caseA.evt  evt
  OC6  voronoi_caseA.oc  oc
END packages

