# File generated by Flopy version 3.9.1 on 01/23/2026 at 22:23:55.
BEGIN options
  SAVE_FLOWS
END options

BEGIN dimensions
  MAXBOUND  62277
END dimensions

BEGIN period  1
  53943 -0.00000000E+00
  53945 -0.00000000E+00
  53946 -0.00000000E+00
  53952 -0.00000000E+00
  53954 -0.00000000E+00
  53955 -0.00000000E+00
  53957 -0.00000000E+00
  53958 -0.00000000E+00
  53969 -0.00000000E+00
  53989 -2.99079067E-04
  53992 -5.38342320E-04
  54526 -0.00000000E+00
  54528 -0.00000000E+00
  54529 -0.00000000E+00
  54530 -0.00000000E+00
  54531 -4.78526507E-04
  54532 -4.78526507E-04
  54534 -0.00000000E+00
  54536 -0.00000000E+00
  54537 -4.78526507E-04
  54538 -4.78526507E-04
  54539 -4.78526507E-04
  54540 -4.78526507E-04
  54541 -0.00000000E+00
  54542 -0.00000000E+00
  54543 -0.00000000E+00
  54544 -0.00000000E+00
  54547 -0.00000000E+00
  54549 -0.00000000E+00
  54550 -0.00000000E+00
  54551 -0.00000000E+00
  54552 -0.00000000E+00
  54553 -0.00000000E+00
  54554 -0.00000000E+00
  54555 -0.00000000E+00
  54556 -0.00000000E+00
  54558 -0.00000000E+00
  54560 -0.00000000E+00
  54561 -0.00000000E+00
  54562 -0.00000000E+00
  54563 -0.00000000E+00
  54564 -0.00000000E+00
  54569 -0.00000000E+00
  54570 -0.00000000E+00
  54573 -0.00000000E+00
  54574 -0.00000000E+00
  54575 -0.00000000E+00
  54576 -0.00000000E+00
  54577 -0.00000000E+00
  54578 -0.00000000E+00
  54579 -0.00000000E+00
  54580 -0.00000000E+00
  54581 -0.00000000E+00
  54582 -0.00000000E+00
  54584 -0.00000000E+00
  54585 -0.00000000E+00
  54586 -0.00000000E+00
  54587 -0.00000000E+00
  54588 -0.00000000E+00
  54599 -0.00000000E+00
  54621 -0.00000000E+00
  54622 -0.00000000E+00
  54623 -0.00000000E+00
  54624 -0.00000000E+00
  54629 -0.00000000E+00
  54630 -0.00000000E+00
  54631 -0.00000000E+00
  54632 -0.00000000E+00
  54657 -3.76839624E-03
  54661 -4.78526507E-04
  54662 -4.78526507E-04
  54663 -2.34477988E-02
  54664 -1.67484277E-03
  54665 -3.17023811E-03
  54666 -5.44323901E-03
  54668 -1.42780346E-01
  54669 -4.00765949E-03
  54670 -5.38342320E-04
  55277 -0.00000000E+00
  55278 -0.00000000E+00
  55280 -0.00000000E+00
  55321 -0.00000000E+00
  55322 -0.00000000E+00
  55323 -0.00000000E+00
  55324 -0.00000000E+00
  55325 -0.00000000E+00
  55327 -0.00000000E+00
  55328 -1.79447440E-04
  55329 -0.00000000E+00
  55330 -0.00000000E+00
  55333 -0.00000000E+00
  55334 -1.79447440E-04
  55335 -0.00000000E+00
  55336 -1.79447440E-04
  55339 -1.79447440E-04
  55343 -2.99079067E-04
  55344 -0.00000000E+00
  55345 -1.79447440E-04
  55346 -2.99079067E-04
  55347 -1.79447440E-04
  55348 -2.99079067E-04
  55349 -2.99079067E-04
  55350 -0.00000000E+00
  55351 -2.99079067E-04
  55352 -0.00000000E+00
  55358 -1.19631627E-04
  55369 -1.19631627E-04
  55370 -0.00000000E+00
  55371 -1.19631627E-04
  55372 -0.00000000E+00
  55373 -0.00000000E+00
  55374 -0.00000000E+00
  55375 -0.00000000E+00
  55376 -0.00000000E+00
  55378 -0.00000000E+00
  55380 -0.00000000E+00
  55381 -0.00000000E+00
  55382 -0.00000000E+00
  55383 -0.00000000E+00
  55384 -0.00000000E+00
  55385 -0.00000000E+00
  55386 -4.78526507E-04
  55387 -0.00000000E+00
  55388 -0.00000000E+00
  55389 -4.78526507E-04
  55390 -1.67484277E-03
  55391 -0.00000000E+00
  55392 -4.18710693E-04
  55393 -0.00000000E+00
  55394 -0.00000000E+00
  55395 -0.00000000E+00
  55396 -0.00000000E+00
  55397 -0.00000000E+00
  55398 -4.18710693E-04
  55399 -0.00000000E+00
  55400 -4.18710693E-04
  55401 -1.67484277E-03
  55402 -3.17023811E-03
  55403 -4.18710693E-04
  55404 -2.87115904E-03
  55405 -3.17023811E-03
  55406 -5.14415995E-02
  55407 -2.87115904E-03
  55408 -5.02452832E-03
  55409 -4.18710693E-04
  55410 -2.87115904E-03
  55411 -4.18710693E-04
  55412 -2.87115904E-03
  55413 -2.87115904E-03
  55414 -5.02452832E-03
  55415 -2.87115904E-03
  55416 -5.02452832E-03
  55417 -0.00000000E+00
  55418 -0.00000000E+00
  55419 -0.00000000E+00
  55420 -0.00000000E+00
  55421 -0.00000000E+00
  55422 -1.13650045E-03
  55423 -0.00000000E+00
  55424 -1.13650045E-03
  55425 -0.00000000E+00
  55426 -0.00000000E+00
  55427 -0.00000000E+00
  55428 -0.00000000E+00
  55429 -0.00000000E+00
  55430 -1.13650045E-03
  55431 -0.00000000E+00
  55432 -1.13650045E-03
  55433 -1.13650045E-03
  55434 -2.87115904E-03
  55435 -1.13650045E-03
  55436 -2.87115904E-03
  55437 -2.87115904E-03
  55438 -7.96746634E-02
  55439 -2.87115904E-03
  55440 -7.96746634E-02
  55441 -1.13650045E-03
  55442 -2.87115904E-03
  55443 -1.13650045E-03
  55444 -6.22084459E-03
  55445 -2.87115904E-03
  55446 -7.96746634E-02
  55447 -6.22084459E-03
  55448 -1.15444520E-02
  55449 -5.14415995E-02
  55450 -1.52889219E-01
  55451 -5.02452832E-03
  55452 -6.46010784E-02
  55453 -1.33389264E-02
  55454 -7.96746634E-02
  55455 -6.46010784E-02
  55456 -1.15444520E-02
  55457 -2.93097485E-03
  55458 -4.78526507E-02
  55459 -5.86194971E-03
  55460 -3.34968555E-03
  55461 -1.43557952E-03
  55462 -1.55521115E-03
  55463 -5.98158133E-04
  55464 -1.13650045E-03
  56030 -0.00000000E+00
  56031 -1.19631627E-04
  56033 -1.19631627E-04
  56036 -1.19631627E-04
  56037 -0.00000000E+00
  56040 -1.79447440E-04
  56071 -0.00000000E+00
  56072 -0.00000000E+00
  56073 -0.00000000E+00
  56074 -0.00000000E+00
  56075 -0.00000000E+00
  56076 -0.00000000E+00
  56077 -0.00000000E+00
  56078 -0.00000000E+00
  56079 -0.00000000E+00
  56080 -0.00000000E+00
  56081 -0.00000000E+00
  56082 -0.00000000E+00
  56083 -0.00000000E+00
  56084 -0.00000000E+00
  56085 -0.00000000E+00
  56086 -0.00000000E+00
  56100 -0.00000000E+00
  56102 -0.00000000E+00
  56103 -0.00000000E+00
  56104 -0.00000000E+00
  56105 -0.00000000E+00
  56106 -0.00000000E+00
  56107 -0.00000000E+00
  56108 -0.00000000E+00
  56109 -0.00000000E+00
  56110 -0.00000000E+00
  56111 -0.00000000E+00
  56112 -0.00000000E+00
  56113 -0.00000000E+00
  56114 -4.18710693E-04
  56115 -0.00000000E+00
  56116 -0.00000000E+00
  56117 -4.18710693E-04
  56118 -1.79447440E-04
  56119 -0.00000000E+00
  56120 -0.00000000E+00
  56121 -0.00000000E+00
  56122 -0.00000000E+00
  56123 -0.00000000E+00
  56124 -1.13650045E-03
  56125 -0.00000000E+00
  56126 -1.13650045E-03
  56127 -0.00000000E+00
  56128 -1.79447440E-04
  56129 -0.00000000E+00
  56130 -1.79447440E-04
  56131 -1.79447440E-04
  56132 -1.79447440E-04
  56133 -1.79447440E-04
  56134 -1.79447440E-04
  56135 -1.13650045E-03
  56136 -6.22084459E-03
  56137 -1.13650045E-03
  56138 -6.22084459E-03
  56139 -6.22084459E-03
  56140 -1.15444520E-02
  56141 -6.22084459E-03
  56142 -1.15444520E-02
  56143 -1.79447440E-04
  56144 -7.41716085E-03
  56145 -1.79447440E-04
  56146 -7.41716085E-03
  56147 -7.41716085E-03
  56148 -1.49539533E-03
  56149 -7.41716085E-03
  56150 -1.49539533E-03
  56151 -0.00000000E+00
  56152 -1.79447440E-03
  56153 -0.00000000E+00
  56154 -1.79447440E-03
  56155 -1.79447440E-03
  56156 -8.13495061E-03
  56157 -1.79447440E-03
  56158 -8.13495061E-03
  56159 -0.00000000E+00
  56160 -1.79447440E-03
  56161 -1.79447440E-04
  56162 -1.37576371E-03
  56163 -1.79447440E-03
  56164 -8.13495061E-03
  56165 -1.37576371E-03
  56166 -2.39263253E-04
  56167 -8.13495061E-03
  56168 -4.84508088E-03
  56169 -8.13495061E-03
  56170 -4.84508088E-03
  56171 -4.84508088E-03
  56172 -1.25613208E-03
  56173 -4.84508088E-03
  56174 -1.25613208E-03
  56175 -8.13495061E-03
  56176 -4.84508088E-03
  56177 -2.39263253E-04
  56178 -1.19631627E-03
  56179 -4.84508088E-03
  56180 -1.25613208E-03
  56181 -1.19631627E-03
  56182 -2.99079067E-04
  56183 -1.15444520E-02
  56184 -1.15444520E-02
  56185 -1.15444520E-02
  56186 -1.15444520E-02
  56187 -2.93097485E-03
  56188 -2.93097485E-03
  56189 -2.93097485E-03
  56190 -2.93097485E-03
  56191 -1.49539533E-03
  56192 -1.49539533E-03
  56193 -1.49539533E-03
  56194 -1.49539533E-03
  56195 -1.31594789E-03
  56196 -1.31594789E-03
  56197 -1.31594789E-03
  56198 -1.31594789E-03
  56199 -3.34968555E-03
  56200 -3.34968555E-03
  56201 -3.34968555E-03
  56202 -3.34968555E-03
  56203 -1.43557952E-03
  56204 -1.43557952E-03
  56205 -1.43557952E-03
  56206 -1.43557952E-03
  56207 -1.01686883E-03
  56208 -1.01686883E-03
  56209 -1.01686883E-03
  56210 -1.01686883E-03
  56211 -4.78526507E-04
  56212 -4.78526507E-04
  56213 -4.78526507E-04
  56214 -4.78526507E-04
  56215 -1.25613208E-03
  56216 -1.25613208E-03
  56217 -1.25613208E-03
  56218 -1.25613208E-03
  56219 -0.00000000E+00
  56220 -0.00000000E+00
  56221 -0.00000000E+00
  56222 -0.00000000E+00
  56223 -1.25613208E-03
  56224 -1.25613208E-03
  56225 -2.99079067E-04
  56226 -2.99079067E-04
  56227 -0.00000000E+00
  56228 -0.00000000E+00
  56229 -0.00000000E+00
  56230 -0.00000000E+00
  56231 -0.00000000E+00
  56232 -0.00000000E+00
  56233 -0.00000000E+00
  56234 -0.00000000E+00
  56235 -3.58894880E-04
  56236 -3.58894880E-04
  56237 -3.58894880E-04
  56238 -3.58894880E-04
  56239 -0.00000000E+00
  56240 -0.00000000E+00
  56241 -0.00000000E+00
  56242 -0.00000000E+00
  56243 -3.58894880E-04
  56244 -3.58894880E-04
  56245 -0.00000000E+00
  56246 -0.00000000E+00
  56247 -4.00765949E-03
  56248 -3.76839624E-03
  56249 -1.19631627E-04
  56250 -3.58894880E-04
  56252 -3.58894880E-04
  56253 -1.79447440E-04
  56254 -3.58894880E-04
  56255 -1.79447440E-04
  56765 -0.00000000E+00
  56767 -0.00000000E+00
  56768 -0.00000000E+00
  56769 -0.00000000E+00
  56770 -0.00000000E+00
  56771 -0.00000000E+00
  56776 -5.98158133E-05
  56777 -1.79447440E-04
  56778 -5.98158133E-05
  56779 -1.79447440E-04
  56801 -1.79447440E-04
  56803 -0.00000000E+00
  56812 -0.00000000E+00
  56813 -1.79447440E-04
  56814 -1.79447440E-04
  56815 -2.99079067E-04
  56816 -5.98158133E-05
  56817 -0.00000000E+00
  56818 -5.98158133E-05
  56819 -0.00000000E+00
  56820 -5.98158133E-05
  56821 -1.19631627E-04
  56822 -4.18710693E-04
  56823 -1.19631627E-04
  56824 -4.18710693E-04
  56825 -5.38342320E-04
  56827 -2.99079067E-04
  56828 -5.38342320E-04
  56829 -2.99079067E-04
  56830 -5.38342320E-04
  56831 -4.78526507E-04
  56832 -2.99079067E-04
  56833 -4.78526507E-04
  56834 -2.99079067E-04
  56836 -2.99079067E-04
  56837 -3.52913299E-03
  56838 -7.17789760E-04
  56839 -3.52913299E-03
  56840 -7.17789760E-04
  56841 -5.38342320E-04
  56842 -2.39263253E-03
  56843 -5.38342320E-04
  56844 -2.39263253E-03
  56845 -4.18710693E-04
  56846 -0.00000000E+00
  56847 -2.39263253E-04
  56848 -2.09355347E-03
  56849 -4.18710693E-04
  56850 -1.79447440E-04
  56851 -6.57973947E-04
  56852 -1.19631627E-03
  56853 -1.25613208E-03
  56854 -3.70858043E-03
  56855 -1.25613208E-03
  56856 -3.70858043E-03
  56857 -5.98158133E-03
  56858 -2.99079067E-03
  56859 -5.98158133E-03
  56860 -2.99079067E-03
  56861 -1.79447440E-04
  56862 -1.37576371E-03
  56863 -1.79447440E-04
  56864 -1.37576371E-03
  56865 -1.37576371E-03
  56866 -2.39263253E-04
  56867 -1.37576371E-03
  56868 -2.39263253E-04
  56869 -1.19631627E-03
  56870 -1.67484277E-03
  56871 -1.19631627E-03
  56872 -1.67484277E-03
  56873 -1.67484277E-03
  56874 -1.07668464E-03
  56875 -1.67484277E-03
  56876 -1.07668464E-03
  56877 -2.39263253E-04
  56878 -1.19631627E-03
  56879 -2.39263253E-04
  56880 -1.19631627E-03
  56881 -1.19631627E-03
  56882 -2.99079067E-04
  56883 -1.19631627E-03
  56884 -2.99079067E-04
  56885 -1.07668464E-03
  56886 -0.00000000E+00
  56887 -1.07668464E-03
  56888 -0.00000000E+00
  56889 -0.00000000E+00
  56890 -0.00000000E+00
  56891 -0.00000000E+00
  56892 -0.00000000E+00
  56893 -1.19631627E-03
  56894 -1.67484277E-03
  56895 -2.99079067E-03
  56896 -1.67484277E-03
  56897 -1.67484277E-03
  56898 -1.07668464E-03
  56899 -1.67484277E-03
  56900 -2.39263253E-04
  56901 -2.99079067E-03
  56902 -1.67484277E-03
  56903 -7.17789760E-04
  56904 -9.57053013E-04
  56905 -1.67484277E-03
  56906 -2.39263253E-04
  56907 -9.57053013E-04
  56908 -0.00000000E+00
  56909 -1.07668464E-03
  56910 -0.00000000E+00
  56911 -2.39263253E-04
  56912 -0.00000000E+00
  56913 -0.00000000E+00
  56914 -0.00000000E+00
  56915 -0.00000000E+00
  56916 -0.00000000E+00
  56917 -2.39263253E-04
  56918 -0.00000000E+00
  56919 -0.00000000E+00
  56920 -0.00000000E+00
  56921 -0.00000000E+00
  56922 -0.00000000E+00
  56923 -0.00000000E+00
  56924 -0.00000000E+00
  56925 -2.99079067E-04
  56926 -0.00000000E+00
  56927 -0.00000000E+00
  56928 -0.00000000E+00
  56929 -0.00000000E+00
  56930 -0.00000000E+00
  56931 -0.00000000E+00
  56932 -0.00000000E+00
  56933 -0.00000000E+00
  56934 -0.00000000E+00
  56935 -0.00000000E+00
  56936 -0.00000000E+00
  56937 -3.58894880E-04
  56938 -5.98158133E-05
  56939 -3.58894880E-04
  56940 -5.98158133E-05
  56941 -8.97237200E-04
  56943 -6.63955528E-03
  57500 -5.98158133E-05
  57501 -1.19631627E-04
  57502 -5.98158133E-05
  57503 -1.19631627E-04
  57508 -5.98158133E-05
  57509 -5.98158133E-05
  57510 -5.98158133E-05
  57511 -5.98158133E-05
  57512 -1.19631627E-04
  57513 -1.19631627E-04
  57514 -1.19631627E-04
  57515 -1.19631627E-04
  57516 -4.18710693E-04
  57517 -4.18710693E-04
  57518 -4.18710693E-04
  57519 -4.18710693E-04
  57520 -5.98158133E-05
  57521 -5.98158133E-05
  57522 -5.98158133E-05
  57523 -5.98158133E-05
  57524 -1.19631627E-04
  57525 -1.19631627E-04
  57526 -1.19631627E-04
  57527 -1.19631627E-04
  57532 -5.98158133E-05
  57533 -5.98158133E-05
  57534 -0.00000000E+00
  57535 -1.31594789E-03
  57537 -0.00000000E+00
  57539 -0.00000000E+00
  57540 -0.00000000E+00
  57541 -1.31594789E-03
  57542 -0.00000000E+00
  57543 -1.31594789E-03
  57544 -5.98158133E-05
  57545 -5.98158133E-05
  57546 -1.31594789E-03
  57547 -1.31594789E-03
  57548 -1.19631627E-04
  57549 -1.19631627E-04
  57550 -2.99079067E-04
  57551 -2.99079067E-04
  57552 -1.31594789E-03
  57553 -1.31594789E-03
  57554 -1.31594789E-03
  57555 -1.31594789E-03
  57556 -2.99079067E-04
  57557 -2.99079067E-04
  57558 -2.99079067E-04
  57559 -2.99079067E-04
  57560 -4.78526507E-04
  57561 -4.78526507E-04
  57562 -4.78526507E-04
  57563 -4.78526507E-04
  57564 -2.99079067E-04
  57565 -2.99079067E-04
  57566 -2.99079067E-04
  57567 -2.99079067E-04
  57568 -1.25613208E-03
  57569 -1.25613208E-03
  57570 -1.25613208E-03
  57571 -1.25613208E-03
  57572 -1.19631627E-04
  57573 -1.19631627E-04
  57574 -1.19631627E-04
  57575 -1.19631627E-04
  57576 -1.79447440E-04
  57577 -1.79447440E-04
  57578 -1.79447440E-04
  57579 -1.79447440E-04
  57580 -1.19631627E-04
  57581 -1.19631627E-04
  57582 -1.19631627E-04
  57583 -1.19631627E-04
  57584 -0.00000000E+00
  57585 -0.00000000E+00
  57586 -0.00000000E+00
  57587 -0.00000000E+00
  57588 -0.00000000E+00
  57589 -0.00000000E+00
  57590 -0.00000000E+00
  57591 -0.00000000E+00
  57592 -1.25613208E-03
  57593 -1.25613208E-03
  57594 -2.39263253E-04
  57595 -2.39263253E-04
  57596 -1.19631627E-04
  57597 -1.19631627E-04
  57598 -5.98158133E-05
  57599 -5.98158133E-05
  57600 -2.39263253E-04
  57601 -2.39263253E-04
  57602 -2.39263253E-04
  57603 -2.39263253E-04
  57604 -5.98158133E-05
  57605 -5.98158133E-05
  57606 -5.98158133E-05
  57607 -5.98158133E-05
  57608 -0.00000000E+00
  57609 -0.00000000E+00
  57610 -0.00000000E+00
  57611 -0.00000000E+00
  57612 -0.00000000E+00
  57613 -0.00000000E+00
  57614 -0.00000000E+00
  57615 -0.00000000E+00
  57616 -0.00000000E+00
  57617 -0.00000000E+00
  57618 -0.00000000E+00
  57619 -0.00000000E+00
  57620 -0.00000000E+00
  57621 -0.00000000E+00
  57622 -0.00000000E+00
  57623 -0.00000000E+00
  57624 -1.19631627E-04
  57625 -1.19631627E-04
  57626 -1.19631627E-04
  57627 -1.19631627E-04
  57628 -1.79447440E-04
  57629 -1.79447440E-04
  57630 -1.79447440E-04
  57631 -1.79447440E-04
  57632 -5.98158133E-04
  57633 -5.98158133E-04
  57634 -5.98158133E-04
  57635 -5.98158133E-04
  57636 -2.39263253E-04
  57637 -2.39263253E-04
  57638 -2.39263253E-04
  57639 -2.39263253E-04
  57640 -3.58894880E-04
  57641 -3.58894880E-04
  57642 -3.58894880E-04
  57643 -3.58894880E-04
  57644 -5.98158133E-04
  57645 -5.98158133E-04
  57646 -5.98158133E-04
  57647 -5.98158133E-04
  57648 -5.98158133E-05
  57649 -5.98158133E-05
  57650 -5.98158133E-05
  57651 -5.98158133E-05
  57652 -1.79447440E-04
  57653 -1.79447440E-04
  57654 -1.79447440E-04
  57655 -1.79447440E-04
  57656 -5.98158133E-04
  57657 -5.98158133E-04
  57658 -0.00000000E+00
  57659 -0.00000000E+00
  57660 -2.39263253E-04
  57661 -2.39263253E-04
  57662 -5.98158133E-05
  57663 -5.98158133E-05
  57664 -0.00000000E+00
  57665 -0.00000000E+00
  57666 -0.00000000E+00
  57667 -0.00000000E+00
  57668 -5.98158133E-05
  57669 -5.98158133E-05
  57670 -5.98158133E-05
  57671 -5.98158133E-05
  57672 -5.98158133E-05
  57673 -5.98158133E-05
  57674 -0.00000000E+00
  57675 -0.00000000E+00
  57676 -1.79447440E-04
  57677 -1.79447440E-04
  57678 -5.98158133E-05
  57679 -5.98158133E-05
  57680 -0.00000000E+00
  57681 -0.00000000E+00
  57682 -0.00000000E+00
  57683 -0.00000000E+00
  57684 -5.98158133E-05
  57685 -5.98158133E-05
  57686 -5.98158133E-05
  57687 -5.98158133E-05
  57688 -5.98158133E-04
  57689 -3.28986973E-03
  57690 -5.98158133E-04
  57691 -3.28986973E-03
  57692 -3.28986973E-03
  57693 -6.46010784E-03
  57694 -3.28986973E-03
  57695 -6.46010784E-03
  57696 -1.79447440E-04
  57697 -2.99079067E-04
  57698 -1.79447440E-04
  57699 -2.99079067E-04
  57700 -2.99079067E-04
  57701 -2.50030100E-02
  57702 -2.99079067E-04
  57703 -2.50030100E-02
  57704 -6.46010784E-03
  57705 -8.37421387E-04
  57706 -6.46010784E-03
  57707 -8.37421387E-04
  57708 -8.37421387E-04
  57709 -7.17789760E-04
  57710 -8.37421387E-04
  57711 -7.17789760E-04
  57712 -2.50030100E-02
  57713 -6.63955528E-03
  57714 -2.50030100E-02
  57715 -6.63955528E-03
  57716 -6.63955528E-03
  57717 -4.18710693E-04
  57718 -6.63955528E-03
  57719 -4.18710693E-04
  57720 -1.79447440E-04
  57721 -2.99079067E-04
  57722 -5.98158133E-05
  57723 -2.39263253E-04
  57724 -2.99079067E-04
  57725 -2.50030100E-02
  57726 -2.39263253E-04
  57727 -5.74231808E-03
  57728 -5.98158133E-05
  57729 -2.39263253E-04
  57730 -5.98158133E-05
  57731 -2.39263253E-04
  57732 -2.39263253E-04
  57733 -5.74231808E-03
  57734 -2.39263253E-04
  57735 -5.74231808E-03
  57736 -2.50030100E-02
  57737 -6.63955528E-03
  57738 -5.74231808E-03
  57739 -1.25613208E-03
  57740 -6.63955528E-03
  57741 -4.18710693E-04
  57742 -1.25613208E-03
  57743 -3.58894880E-04
  57744 -5.74231808E-03
  57745 -1.25613208E-03
  57746 -5.74231808E-03
  57747 -1.25613208E-03
  57748 -1.25613208E-03
  57749 -3.58894880E-04
  57750 -1.25613208E-03
  57751 -3.58894880E-04
  57752 -7.17789760E-04
  57753 -9.57053013E-04
  57754 -7.17789760E-04
  57755 -9.57053013E-04
  57756 -9.57053013E-04
  57757 -0.00000000E+00
  57758 -9.57053013E-04
  57759 -0.00000000E+00
  57760 -4.18710693E-04
  57761 -5.38342320E-04
  57762 -4.18710693E-04
  57763 -5.38342320E-04
  57764 -5.38342320E-04
  57765 -0.00000000E+00
  57766 -5.38342320E-04
  57767 -0.00000000E+00
  57768 -0.00000000E+00
  57769 -0.00000000E+00
  57770 -0.00000000E+00
  57771 -0.00000000E+00
  57772 -0.00000000E+00
  57773 -0.00000000E+00
  57774 -0.00000000E+00
  57775 -0.00000000E+00
  57776 -0.00000000E+00
  57777 -0.00000000E+00
  57778 -0.00000000E+00
  57779 -0.00000000E+00
  57780 -0.00000000E+00
  57781 -0.00000000E+00
  57782 -0.00000000E+00
  57783 -0.00000000E+00
  57784 -4.18710693E-04
  57785 -5.38342320E-04
  57786 -3.58894880E-04
  57787 -6.57973947E-04
  57788 -5.38342320E-04
  57789 -0.00000000E+00
  57790 -6.57973947E-04
  57791 -2.99079067E-04
  57792 -3.58894880E-04
  57793 -6.57973947E-04
  57794 -3.58894880E-04
  57795 -6.57973947E-04
  57796 -6.57973947E-04
  57797 -2.99079067E-04
  57798 -6.57973947E-04
  57799 -2.99079067E-04
  57800 -0.00000000E+00
  57801 -0.00000000E+00
  57802 -2.99079067E-04
  57803 -0.00000000E+00
  57804 -0.00000000E+00
  57805 -0.00000000E+00
  57806 -0.00000000E+00
  57807 -0.00000000E+00
  57808 -2.99079067E-04
  57809 -0.00000000E+00
  57810 -2.99079067E-04
  57811 -0.00000000E+00
  57812 -0.00000000E+00
  57813 -0.00000000E+00
  57814 -0.00000000E+00
  57815 -0.00000000E+00
  57816 -0.00000000E+00
  57817 -0.00000000E+00
  57818 -0.00000000E+00
  57819 -0.00000000E+00
  57820 -0.00000000E+00
  57821 -0.00000000E+00
  57822 -0.00000000E+00
  57823 -0.00000000E+00
  57824 -0.00000000E+00
  57825 -0.00000000E+00
  57826 -0.00000000E+00
  57827 -0.00000000E+00
  57828 -0.00000000E+00
  57829 -0.00000000E+00
  57830 -0.00000000E+00
  57831 -0.00000000E+00
  57832 -8.37421387E-04
  57833 -8.37421387E-04
  57834 -8.37421387E-04
  57835 -8.37421387E-04
  57836 -5.98158133E-04
  57837 -5.98158133E-04
  57838 -5.98158133E-04
  57839 -5.98158133E-04
  57840 -0.00000000E+00
  57841 -0.00000000E+00
  57842 -0.00000000E+00
  57843 -0.00000000E+00
  57844 -3.58894880E-04
  57845 -3.58894880E-04
  57846 -3.58894880E-04
  57847 -3.58894880E-04
  57848 -0.00000000E+00
  57849 -0.00000000E+00
  57850 -0.00000000E+00
  57851 -0.00000000E+00
  57852 -0.00000000E+00
  57853 -0.00000000E+00
  57854 -0.00000000E+00
  57855 -0.00000000E+00
  57856 -0.00000000E+00
  57857 -0.00000000E+00
  57858 -0.00000000E+00
  57859 -0.00000000E+00
  57860 -0.00000000E+00
  57861 -0.00000000E+00
  57862 -0.00000000E+00
  57863 -0.00000000E+00
  57864 -0.00000000E+00
  57865 -0.00000000E+00
  57866 -0.00000000E+00
  57867 -0.00000000E+00
  57868 -3.58894880E-04
  57869 -3.58894880E-04
  57870 -0.00000000E+00
  57871 -0.00000000E+00
  57872 -0.00000000E+00
  57873 -0.00000000E+00
  57874 -0.00000000E+00
  57875 -0.00000000E+00
  57876 -0.00000000E+00
  57877 -0.00000000E+00
  57878 -0.00000000E+00
  57879 -0.00000000E+00
  57880 -0.00000000E+00
  57882 -5.98158133E-04
  57885 -2.39263253E-04
  57887 -2.39263253E-04
  58137 -1.19631627E-04
  58155 -1.19631627E-04
  58156 -5.98158133E-04
  58157 -5.98158133E-04
  58158 -1.19631627E-04
  58159 -1.19631627E-04
  58160 -0.00000000E+00
  58161 -0.00000000E+00
  58162 -5.98158133E-04
  58163 -5.98158133E-04
  58164 -5.98158133E-04
  58165 -5.98158133E-04
  58166 -0.00000000E+00
  58167 -0.00000000E+00
  58168 -0.00000000E+00
  58169 -0.00000000E+00
  58179 -0.00000000E+00
  58180 -0.00000000E+00
  58181 -0.00000000E+00
  58182 -0.00000000E+00
  58183 -0.00000000E+00
  58184 -0.00000000E+00
  58185 -0.00000000E+00
  58188 -1.19631627E-04
  58194 -1.79447440E-04
  58195 -1.79447440E-04
  58196 -1.79447440E-04
  58197 -1.79447440E-04
  58198 -1.79447440E-04
  58200 -1.79447440E-04
  58201 -1.79447440E-04
  58202 -0.00000000E+00
  58203 -0.00000000E+00
  58204 -0.00000000E+00
  58205 -0.00000000E+00
  58206 -0.00000000E+00
  58207 -0.00000000E+00
  58208 -0.00000000E+00
  58209 -0.00000000E+00
  58210 -0.00000000E+00
  58211 -0.00000000E+00
  58212 -0.00000000E+00
  58213 -0.00000000E+00
  58214 -0.00000000E+00
  58215 -0.00000000E+00
  58216 -0.00000000E+00
  58217 -0.00000000E+00
  58218 -1.79447440E-04
  58219 -1.79447440E-04
  58220 -1.79447440E-04
  58221 -1.79447440E-04
  58222 -1.79447440E-04
  58223 -1.79447440E-04
  58224 -1.79447440E-04
  58225 -1.79447440E-04
  58226 -1.79447440E-04
  58227 -1.79447440E-04
  58228 -1.79447440E-04
  58229 -1.79447440E-04
  58230 -1.79447440E-04
  58231 -1.79447440E-04
  58232 -1.79447440E-04
  58233 -1.79447440E-04
  58266 -0.00000000E+00
  58268 -0.00000000E+00
  58269 -0.00000000E+00
  58274 -0.00000000E+00
  58275 -0.00000000E+00
  58319 -5.98158133E-05
  58320 -5.98158133E-05
  58321 -5.98158133E-05
  58323 -0.00000000E+00
  58324 -5.98158133E-05
  58325 -0.00000000E+00
  58326 -0.00000000E+00
  58327 -5.98158133E-05
  58328 -0.00000000E+00
  58329 -5.98158133E-05
  58335 -5.98158133E-05
  58336 -0.00000000E+00
  58337 -0.00000000E+00
  58339 -0.00000000E+00
  58340 -5.98158133E-05
  58341 -0.00000000E+00
  58342 -0.00000000E+00
  58343 -0.00000000E+00
  58344 -0.00000000E+00
  58345 -0.00000000E+00
  58346 -5.98158133E-05
  58347 -0.00000000E+00
  58348 -0.00000000E+00
  58349 -0.00000000E+00
  58350 -0.00000000E+00
  58351 -5.98158133E-05
  58352 -0.00000000E+00
  58353 -5.98158133E-05
  58354 -0.00000000E+00
  58355 -0.00000000E+00
  58356 -0.00000000E+00
  58357 -0.00000000E+00
  58358 -0.00000000E+00
  58359 -5.98158133E-05
  58360 -0.00000000E+00
  58361 -5.98158133E-05
  58362 -5.98158133E-05
  58363 -0.00000000E+00
  58364 -5.98158133E-05
  58365 -0.00000000E+00
  58366 -0.00000000E+00
  58367 -0.00000000E+00
  58368 -0.00000000E+00
  58369 -0.00000000E+00
  58370 -5.98158133E-05
  58371 -1.19631627E-04
  58372 -5.98158133E-05
  58373 -1.19631627E-04
  58374 -1.19631627E-04
  58375 -4.18710693E-04
  58376 -1.19631627E-04
  58377 -4.18710693E-04
  58378 -0.00000000E+00
  58379 -0.00000000E+00
  58380 -0.00000000E+00
  58381 -0.00000000E+00
  58382 -4.78526507E-04
  58383 -4.78526507E-04
  58384 -4.78526507E-04
  58385 -4.78526507E-04
  58386 -4.18710693E-04
  58387 -4.18710693E-04
  58388 -4.18710693E-04
  58389 -4.18710693E-04
  58390 -2.39263253E-04
  58391 -2.39263253E-04
  58392 -2.39263253E-04
  58393 -2.39263253E-04
  58394 -5.98158133E-05
  58395 -1.19631627E-04
  58396 -5.98158133E-05
  58397 -5.98158133E-05
  58398 -1.19631627E-04
  58399 -4.18710693E-04
  58400 -5.98158133E-05
  58401 -4.18710693E-04
  58402 -5.98158133E-05
  58403 -5.98158133E-05
  58404 -5.98158133E-05
  58405 -5.98158133E-05
  58406 -5.98158133E-05
  58407 -4.18710693E-04
  58408 -5.98158133E-05
  58409 -4.18710693E-04
  58410 -4.18710693E-04
  58411 -4.18710693E-04
  58412 -4.18710693E-04
  58413 -4.18710693E-04
  58414 -2.39263253E-04
  58415 -2.39263253E-04
  58416 -5.98158133E-05
  58417 -5.98158133E-05
  58418 -4.18710693E-04
  58419 -4.18710693E-04
  58420 -4.18710693E-04
  58421 -4.18710693E-04
  58422 -5.98158133E-05
  58423 -5.98158133E-05
  58424 -5.98158133E-05
  58425 -5.98158133E-05
  58426 -5.98158133E-05
  58427 -5.98158133E-05
  58428 -5.98158133E-05
  58429 -5.98158133E-05
  58430 -5.98158133E-05
  58431 -5.98158133E-05
  58432 -5.98158133E-05
  58433 -5.98158133E-05
  58434 -0.00000000E+00
  58435 -0.00000000E+00
  58436 -0.00000000E+00
  58437 -0.00000000E+00
  58438 -0.00000000E+00
  58439 -0.00000000E+00
  58440 -0.00000000E+00
  58441 -0.00000000E+00
  58442 -0.00000000E+00
  58443 -0.00000000E+00
  58444 -0.00000000E+00
  58445 -0.00000000E+00
  58446 -0.00000000E+00
  58447 -0.00000000E+00
  58448 -0.00000000E+00
  58449 -0.00000000E+00
  58450 -0.00000000E+00
  58451 -0.00000000E+00
  58452 -0.00000000E+00
  58453 -0.00000000E+00
  58454 -0.00000000E+00
  58455 -0.00000000E+00
  58456 -0.00000000E+00
  58457 -0.00000000E+00
  58458 -0.00000000E+00
  58459 -0.00000000E+00
  58460 -5.98158133E-05
  58461 -5.98158133E-05
  58462 -0.00000000E+00
  58463 -0.00000000E+00
  58464 -5.98158133E-05
  58465 -5.98158133E-05
  58466 -5.98158133E-05
  58467 -5.98158133E-05
  58468 -5.98158133E-05
  58469 -5.98158133E-05
  58470 -5.98158133E-05
  58471 -5.98158133E-05
  58472 -5.98158133E-05
  58473 -5.98158133E-05
  58474 -0.00000000E+00
  58475 -0.00000000E+00
  58476 -0.00000000E+00
  58477 -0.00000000E+00
  58478 -0.00000000E+00
  58479 -0.00000000E+00
  58480 -0.00000000E+00
  58481 -0.00000000E+00
  58482 -0.00000000E+00
  58483 -0.00000000E+00
  58484 -0.00000000E+00
  58485 -0.00000000E+00
  58486 -0.00000000E+00
  58487 -0.00000000E+00
  58488 -0.00000000E+00
  58489 -0.00000000E+00
  58490 -0.00000000E+00
  58491 -0.00000000E+00
  58492 -0.00000000E+00
  58493 -0.00000000E+00
  58494 -0.00000000E+00
  58495 -0.00000000E+00
  58496 -0.00000000E+00
  58497 -0.00000000E+00
  58498 -5.98158133E-05
  58499 -5.98158133E-05
  58500 -5.98158133E-05
  58501 -5.98158133E-05
  58502 -0.00000000E+00
  58503 -0.00000000E+00
  58504 -0.00000000E+00
  58505 -0.00000000E+00
  58506 -0.00000000E+00
  58507 -0.00000000E+00
  58508 -0.00000000E+00
  58509 -0.00000000E+00
  58510 -1.19631627E-04
  58511 -1.19631627E-04
  58512 -1.19631627E-04
  58513 -1.19631627E-04
  58514 -0.00000000E+00
  58515 -0.00000000E+00
  58516 -0.00000000E+00
  58517 -0.00000000E+00
  58518 -0.00000000E+00
  58519 -0.00000000E+00
  58520 -0.00000000E+00
  58521 -0.00000000E+00
  58522 -5.98158133E-05
  58523 -5.98158133E-05
  58524 -0.00000000E+00
  58525 -0.00000000E+00
  58526 -0.00000000E+00
  58527 -0.00000000E+00
  58528 -2.39263253E-04
  58529 -2.39263253E-04
  58530 -0.00000000E+00
  58531 -0.00000000E+00
  58532 -0.00000000E+00
  58533 -0.00000000E+00
  58534 -2.39263253E-04
  58535 -2.39263253E-04
  58536 -2.39263253E-04
  58537 -2.39263253E-04
  58538 -0.00000000E+00
  58539 -0.00000000E+00
  58540 -0.00000000E+00
  58541 -0.00000000E+00
  58542 -0.00000000E+00
  58543 -0.00000000E+00
  58544 -1.19631627E-04
  58545 -1.19631627E-04
  58546 -0.00000000E+00
  58547 -0.00000000E+00
  58548 -0.00000000E+00
  58549 -0.00000000E+00
  58550 -1.19631627E-04
  58551 -1.19631627E-04
  58552 -1.19631627E-04
  58553 -1.19631627E-04
  58554 -1.79447440E-04
  58555 -9.57053013E-04
  58556 -4.78526507E-04
  58557 -8.37421387E-04
  58558 -2.57207997E-03
  58559 -5.98158133E-05
  58560 -8.97237200E-04
  58561 -0.00000000E+00
  58562 -4.78526507E-04
  58563 -8.37421387E-04
  58564 -5.38342320E-04
  58565 -2.99079067E-04
  58566 -8.97237200E-04
  58567 -0.00000000E+00
  58568 -5.38342320E-04
  58569 -2.99079067E-04
  58570 -5.98158133E-05
  58571 -0.00000000E+00
  58572 -5.98158133E-05
  58573 -0.00000000E+00
  58574 -0.00000000E+00
  58575 -0.00000000E+00
  58576 -0.00000000E+00
  58577 -0.00000000E+00
  58578 -0.00000000E+00
  58579 -4.18710693E-04
  58580 -0.00000000E+00
  58581 -4.18710693E-04
  58582 -4.18710693E-04
  58583 -0.00000000E+00
  58584 -4.18710693E-04
  58585 -0.00000000E+00
  58586 -0.00000000E+00
  58587 -0.00000000E+00
  58588 -0.00000000E+00
  58589 -0.00000000E+00
  58590 -0.00000000E+00
  58591 -0.00000000E+00
  58592 -0.00000000E+00
  58593 -0.00000000E+00
  58594 -0.00000000E+00
  58595 -5.98158133E-05
  58596 -0.00000000E+00
  58597 -5.98158133E-05
  58598 -5.98158133E-05
  58599 -0.00000000E+00
  58600 -5.98158133E-05
  58601 -0.00000000E+00
  58602 -0.00000000E+00
  58603 -4.18710693E-04
  58604 -2.99079067E-04
  58605 -0.00000000E+00
  58606 -4.18710693E-04
  58607 -0.00000000E+00
  58608 -0.00000000E+00