# File generated by Flopy version 3.9.1 on 01/23/2026 at 22:23:39.
BEGIN options
END options

BEGIN timing
  TDIS6  DISU_model.tdis
END timing

BEGIN models
  gwf6  DISU_model.nam  disu_model
END models

BEGIN exchanges
END exchanges

BEGIN solutiongroup  1
  ims6  DISU_model.ims  disu_model
END solutiongroup  1

