# File generated by Flopy version 3.9.1 on 01/23/2026 at 22:23:55.
BEGIN options
  FIXED_CELL
  PRINT_FLOWS
  SAVE_FLOWS
END options

BEGIN dimensions
  MAXBOUND  21123
END dimensions

BEGIN period  1
  1 1.02381967E-08
  2 1.01969362E-08
  3 1.02229021E-08
  4 1.02605420E-08
  5 1.01479858E-08
  6 1.01464309E-08
  7 1.01023960E-08
  8 1.00667298E-08
  9 1.00199131E-08
  10 1.01875769E-08
  11 1.02104154E-08
  12 1.02645491E-08
  13 1.03479626E-08
  14 1.00924477E-08
  15 1.01169147E-08
  16 1.00093738E-08
  17 1.00354759E-08
  18 1.01747798E-08
  19 1.02637821E-08
  20 1.00970797E-08
  21 1.01916617E-08
  22 1.04577084E-08
  23 1.05901517E-08
  24 1.03806286E-08
  25 1.05212804E-08
  26 1.03155628E-08
  27 1.04643186E-08
  28 1.06812689E-08
  29 1.08560010E-08
  30 1.06330234E-08
  31 1.08166756E-08
  32 1.11143900E-08
  33 1.10805592E-08
  34 1.12925715E-08
  35 1.15066886E-08
  36 1.17194635E-08
  37 1.19281006E-08
  38 1.21304197E-08
  39 1.23247920E-08
  40 1.25100633E-08
  41 1.26854724E-08
  42 1.28505744E-08
  43 1.30051703E-08
  44 1.31256071E-08
  45 1.32590371E-08
  46 1.33823382E-08
  47 1.34957846E-08
  48 1.35996896E-08
  49 1.11365484E-08
  50 1.13953724E-08
  51 1.11699543E-08
  52 1.06981613E-08
  53 1.05242104E-08
  54 1.03539021E-08
  55 1.05024058E-08
  56 1.03243847E-08
  57 1.09162275E-08
  58 1.07018817E-08
  59 1.09448713E-08
  60 1.07251441E-08
  61 1.04991486E-08
  62 1.03142137E-08
  63 1.05166378E-08
  64 1.03258541E-08
  65 1.02066806E-08
  66 1.00878112E-08
  67 1.01700798E-08
  68 1.00452135E-08
  69 1.00018645E-08
  70 9.95231081E-09
  71 9.95478340E-09
  72 9.90260124E-09
  73 1.01534781E-08
  74 1.00231121E-08
  75 1.01595815E-08
  76 1.00244145E-08
  77 9.92853803E-09
  78 9.87391091E-09
  79 9.92618430E-09
  80 9.86938062E-09
  81 9.94118724E-09
  82 9.96889549E-09
  83 9.89091072E-09
  84 9.92015350E-09
  85 1.00341672E-08
  86 1.01342039E-08
  87 9.98892911E-09
  88 1.00941559E-08
  89 9.86168386E-09
  90 9.89234024E-09
  91 9.85666294E-09
  92 9.88855717E-09
  93 9.96434723E-09
  94 1.00743394E-08
  95 9.96340217E-09
  96 1.00775569E-08
  97 1.02649634E-08
  98 1.04215420E-08
  99 1.02314008E-08
  100 1.03953147E-08
  101 1.05985875E-08
  102 1.08460219E-08
  103 1.05801002E-08
  104 1.08334698E-08
  105 1.02174939E-08
  106 1.03880232E-08
  107 1.02258227E-08
  108 1.04019939E-08
  109 1.06204537E-08
  110 1.08390108E-08
  111 1.06403027E-08
  112 1.08644589E-08
  113 1.10603131E-08
  114 1.12802737E-08
  115 1.10553712E-08
  116 1.12823441E-08
  117 1.15016239E-08
  118 1.17208060E-08
  119 1.15099447E-08
  120 1.17345293E-08
  121 1.10673957E-08
  122 1.13001956E-08
  123 1.10979276E-08
  124 1.13351146E-08
  125 1.15328338E-08
  126 1.17616100E-08
  127 1.15713474E-08
  128 1.18029012E-08
  129 1.19349791E-08
  130 1.21419680E-08
  131 1.19532351E-08
  132 1.21639121E-08
  133 1.23401851E-08
  134 1.25285395E-08
  135 1.23650292E-08
  136 1.25555711E-08
  137 1.19836642E-08
  138 1.21968912E-08
  139 1.20269442E-08
  140 1.22414352E-08
  141 1.23998314E-08
  142 1.25915545E-08
  143 1.24449983E-08
  144 1.26367954E-08
  145 1.27063463E-08
  146 1.28732407E-08
  147 1.27349365E-08
  148 1.29028454E-08
  149 1.30291030E-08
  150 1.31507903E-08
  151 1.30367841E-08
  152 1.31815118E-08
  153 1.27715482E-08
  154 1.29396193E-08
  155 1.28164058E-08
  156 1.29837221E-08
  157 1.30737104E-08
  158 1.32178954E-08
  159 1.31171055E-08
  160 1.32600104E-08
  161 1.32846393E-08
  162 1.34080336E-08
  163 1.33151903E-08
  164 1.34381454E-08
  165 1.35212986E-08
  166 1.36247906E-08
  167 1.35507504E-08
  168 1.36534007E-08
  169 1.33507759E-08
  170 1.34727302E-08
  171 1.33914354E-08
  172 1.35118044E-08
  173 1.35841741E-08
  174 1.36855370E-08
  175 1.36215695E-08
  176 1.37211878E-08
  177 1.37188783E-08
  178 1.38039294E-08
  179 1.37464962E-08
  180 1.38304293E-08
  181 1.39055759E-08
  182 1.39722912E-08
  183 1.37772453E-08
  184 1.38597107E-08
  185 1.38111060E-08
  186 1.38917496E-08
  187 1.39333229E-08
  188 1.39984457E-08
  189 1.39635168E-08
  190 1.40267751E-08
  191 1.40554154E-08
  192 1.41045415E-08
  193 1.40818608E-08
  194 1.41290799E-08
  195 1.41687116E-08
  196 1.42010117E-08
  197 1.39791687E-08
  198 1.39717692E-08
  199 1.38907337E-08
  200 1.39607699E-08
  201 1.39102748E-08
  202 1.38681653E-08
  203 1.38403392E-08
  204 1.38907091E-08
  205 1.38659980E-08
  206 1.38067067E-08
  207 1.38355912E-08
  208 1.37989288E-08
  209 1.37554412E-08
  210 1.37045487E-08
  211 1.28485564E-08
  212 1.25202457E-08
  213 1.23363453E-08
  214 1.16724838E-08
  215 1.19580928E-08
  216 1.17433619E-08
  217 1.14492298E-08
  218 1.12214369E-08
  219 1.15202911E-08
  220 1.12919685E-08
  221 1.20420869E-08
  222 1.18299969E-08
  223 1.21400022E-08
  224 1.19324474E-08
  225 1.16090417E-08
  226 1.13822197E-08
  227 1.17156547E-08
  228 1.14925067E-08
  229 1.09932207E-08
  230 1.07696951E-08
  231 1.10624910E-08
  232 1.08370152E-08
  233 1.05569033E-08
  234 1.03616126E-08
  235 1.06217026E-08
  236 1.04235217E-08
  237 1.11535676E-08
  238 1.09282284E-08
  239 1.12669377E-08
  240 1.10440194E-08
  241 1.07124145E-08
  242 1.05132179E-08
  243 1.08299394E-08
  244 1.06318256E-08
  245 1.01909514E-08
  246 1.00518972E-08
  247 1.02498765E-08
  248 1.01080686E-08
  249 9.95065875E-09
  250 9.89203956E-09
  251 1.00046351E-08
  252 9.94465813E-09
  253 1.03382378E-08
  254 1.01950218E-08
  255 1.04573758E-08
  256 1.03142882E-08
  257 1.01094733E-08
  258 9.87889498E-09
  259 9.91179299E-09
  260 9.93117002E-09
  261 9.96477877E-09
  262 1.00671452E-08
  263 1.00158595E-08
  264 1.00498296E-08
  265 1.01347519E-08
  266 1.01686845E-08
  267 1.02405525E-08
  268 1.03732842E-08
  269 1.06832849E-08
  270 1.09114352E-08
  271 1.07510178E-08
  272 1.09812823E-08
  273 1.05860551E-08
  274 1.08447283E-08
  275 1.10749790E-08
  276 1.09651580E-08
  277 1.11930624E-08
  278 1.11483166E-08
  279 1.13882021E-08
  280 1.12196487E-08
  281 1.14603136E-08
  282 1.16263656E-08
  283 1.18590918E-08
  284 1.16985437E-08
  285 1.19306680E-08
  286 1.13126762E-08
  287 1.15520029E-08
  288 1.14277549E-08
  289 1.16634722E-08
  290 1.17882673E-08
  291 1.20178777E-08
  292 1.18956144E-08
  293 1.21207026E-08
  294 1.20836027E-08
  295 1.22979380E-08
  296 1.21539865E-08
  297 1.23666342E-08
  298 1.25008155E-08
  299 1.26914928E-08
  300 1.25674292E-08
  301 1.27557250E-08
  302 1.22382343E-08
  303 1.24475785E-08
  304 1.23362561E-08
  305 1.25406304E-08
  306 1.26448312E-08
  307 1.28294387E-08
  308 1.27328480E-08
  309 1.29124406E-08
  310 1.28696403E-08
  311 1.30141715E-08
  312 1.29312789E-08
  313 1.30733491E-08
  314 1.31670090E-08
  315 1.33078667E-08
  316 1.32233854E-08
  317 1.33614105E-08
  318 1.29811121E-08
  319 1.31397866E-08
  320 1.30593803E-08
  321 1.32132833E-08
  322 1.32861195E-08
  323 1.34205210E-08
  324 1.33550149E-08
  325 1.34850098E-08
  326 1.34371570E-08
  327 1.35553414E-08
  328 1.34878752E-08
  329 1.36032690E-08
  330 1.36629001E-08
  331 1.37603107E-08
  332 1.37080914E-08
  333 1.38028317E-08
  334 1.35434686E-08
  335 1.36554688E-08
  336 1.36037595E-08
  337 1.37117757E-08
  338 1.37570303E-08
  339 1.38486450E-08
  340 1.38095651E-08
  341 1.38976126E-08
  342 1.38480332E-08
  343 1.39265006E-08
  344 1.38879557E-08
  345 1.39638971E-08
  346 1.39961139E-08
  347 1.40572392E-08
  348 1.40310533E-08
  349 1.40897838E-08
  350 1.39307760E-08
  351 1.40038506E-08
  352 1.39763704E-08
  353 1.40462517E-08
  354 1.40682565E-08
  355 1.41243405E-08
  356 1.41076277E-08
  357 1.41608274E-08
  358 1.41102080E-08
  359 1.41553188E-08
  360 1.41404104E-08
  361 1.41832199E-08
  362 1.41928409E-08
  363 1.42230185E-08
  364 1.42184678E-08
  365 1.42463833E-08
  366 1.41724102E-08
  367 1.42127362E-08
  368 1.42061389E-08
  369 1.42438128E-08
  370 1.42455567E-08
  371 1.42710823E-08
  372 1.42740659E-08
  373 1.42970873E-08
  374 1.42460767E-08
  375 1.42622286E-08
  376 1.42671753E-08
  377 1.42810398E-08
  378 1.42881683E-08
  379 1.42895026E-08
  380 1.43009941E-08
  381 1.43130445E-08
  382 1.43220916E-08
  383 1.43057283E-08
  384 1.43038818E-08
  385 1.43243780E-08
  386 1.43200585E-08
  387 1.42956470E-08
  388 1.43093049E-08
  389 1.42923182E-08
  390 1.42693413E-08
  391 1.38854328E-08
  392 1.38997396E-08
  393 1.39059331E-08
  394 1.39509827E-08
  395 1.39587487E-08
  396 1.39256821E-08
  397 1.39333544E-08
  398 1.39131313E-08
  399 1.39213920E-08
  400 1.39417391E-08
  401 1.39507214E-08
  402 1.39306883E-08
  403 1.39409085E-08
  404 1.39775429E-08
  405 1.39666246E-08
  406 1.39743553E-08
  407 1.39828243E-08
  408 1.39870289E-08
  409 1.39816235E-08
  410 1.39880561E-08
  411 1.39601104E-08
  412 1.39696428E-08
  413 1.39518576E-08
  414 1.39632628E-08
  415 1.39789888E-08
  416 1.39877596E-08
  417 1.39747797E-08
  418 1.39860015E-08
  419 1.39897506E-08
  420 1.39905428E-08
  421 1.39932312E-08
  422 1.39966859E-08
  423 1.39889251E-08
  424 1.39843899E-08
  425 1.39979241E-08
  426 1.39964239E-08
  427 1.39955158E-08
  428 1.40017765E-08
  429 1.39964689E-08
  430 1.40056805E-08
  431 1.40060280E-08
  432 1.40077332E-08
  433 1.40131035E-08
  434 1.40181839E-08
  435 1.39764083E-08
  436 1.39297690E-08
  437 1.39916446E-08
  438 1.39490728E-08
  439 1.39134228E-08
  440 1.38920619E-08
  441 1.39361587E-08
  442 1.39183775E-08
  443 1.40063389E-08
  444 1.39680423E-08
  445 1.40203552E-08
  446 1.39865369E-08
  447 1.39645917E-08
  448 1.38651372E-08
  449 1.38320938E-08
  450 1.38951837E-08
  451 1.38660307E-08
  452 1.37923706E-08
  453 1.37453997E-08
  454 1.38303704E-08
  455 1.37876514E-08
  456 1.39255655E-08
  457 1.39005627E-08
  458 1.39561168E-08
  459 1.39355101E-08
  460 1.38692492E-08
  461 1.38310955E-08
  462 1.39088104E-08
  463 1.38755152E-08
  464 1.36906042E-08
  465 1.36273982E-08
  466 1.37373179E-08
  467 1.36788072E-08
  468 1.36115492E-08
  469 1.35349662E-08
  470 1.37855725E-08
  471 1.37321483E-08
  472 1.38351272E-08
  473 1.37871523E-08
  474 1.36702867E-08
  475 1.35994464E-08
  476 1.37310960E-08
  477 1.36664625E-08
  478 1.32784558E-08
  479 1.34484766E-08
  480 1.33515013E-08
  481 1.31984328E-08
  482 1.30727591E-08
  483 1.32778937E-08
  484 1.31588775E-08
  485 1.35190828E-08
  486 1.34286535E-08
  487 1.35927548E-08
  488 1.35094787E-08
  489 1.33622191E-08
  490 1.32507266E-08
  491 1.34509124E-08
  492 1.33477442E-08
  493 1.29344504E-08
  494 1.27831610E-08
  495 1.30276081E-08
  496 1.28837312E-08
  497 1.26187467E-08
  498 1.24413582E-08
  499 1.27270763E-08
  500 1.25577462E-08
  501 1.31274917E-08
  502 1.29921691E-08
  503 1.32334658E-08
  504 1.31077578E-08
  505 1.28445793E-08
  506 1.26847929E-08
  507 1.29704492E-08
  508 1.28215948E-08
  509 1.22515609E-08
  510 1.20504793E-08
  511 1.23762324E-08
  512 1.21835568E-08
  513 1.18399613E-08
  514 1.16227502E-08
  515 1.19814354E-08
  516 1.17724522E-08
  517 1.25132399E-08
  518 1.23308467E-08
  519 1.26615778E-08
  520 1.24912372E-08
  521 1.21282556E-08
  522 1.14026379E-08
  523 1.11845648E-08
  524 1.15602194E-08
  525 1.13494873E-08
  526 1.09586592E-08
  527 1.17374598E-08
  528 1.13436214E-08
  529 1.11627278E-08
  530 1.15654324E-08
  531 1.13950247E-08
  532 1.06210039E-08
  533 1.04173352E-08
  534 1.10024665E-08
  535 1.08702773E-08
  536 1.12438199E-08
  537 1.11189116E-08
  538 1.07730017E-08
  539 1.07160773E-08
  540 1.10268495E-08
  541 1.09728580E-08
  542 1.03900342E-08
  543 1.05444708E-08
  544 1.07028135E-08
  545 1.07339202E-08
  546 1.09601296E-08
  547 1.09893621E-08
  548 1.10266243E-08
  549 1.08923319E-08
  550 1.13048530E-08
  551 1.11148462E-08
  552 1.12908966E-08
  553 1.13594186E-08
  554 1.15251850E-08
  555 1.14854000E-08
  556 1.16911979E-08
  557 1.17081756E-08
  558 1.19016221E-08
  559 1.17545825E-08
  560 1.20203284E-08
  561 1.22388384E-08
  562 1.21618041E-08
  563 1.23716866E-08
  564 1.21010862E-08
  565 1.23190891E-08
  566 1.25183584E-08
  567 1.24909013E-08
  568 1.26776919E-08
  569 1.24477196E-08
  570 1.26454452E-08
  571 1.25720457E-08
  572 1.27614729E-08
  573 1.29703214E-08
  574 1.27084145E-08
  575 1.28879637E-08
  576 1.28557804E-08
  577 1.30239831E-08
  578 1.31765315E-08
  579 1.31454170E-08
  580 1.32935403E-08
  581 1.32387883E-08
  582 1.33801622E-08
  583 1.34297933E-08
  584 1.35546210E-08
  585 1.35100976E-08
  586 1.36290335E-08
  587 1.34575028E-08
  588 1.36956204E-08
  589 1.36685147E-08
  590 1.37719786E-08
  591 1.37374472E-08
  592 1.38358225E-08
  593 1.38655064E-08
  594 1.39495661E-08
  595 1.39246288E-08
  596 1.40043073E-08
  597 1.38939791E-08
  598 1.39866735E-08
  599 1.40616107E-08
  600 1.40513508E-08
  601 1.41212256E-08
  602 1.40245901E-08
  603 1.40909701E-08
  604 1.40752621E-08
  605 1.41378562E-08
  606 1.41490545E-08
  607 1.41991489E-08
  608 1.41924089E-08
  609 1.42391972E-08
  610 1.41281911E-08
  611 1.41867418E-08
  612 1.41831610E-08
  613 1.42374423E-08
  614 1.42375478E-08
  615 1.42808521E-08
  616 1.42843143E-08
  617 1.43239822E-08
  618 1.42415175E-08
  619 1.42763862E-08
  620 1.42784567E-08
  621 1.43103855E-08
  622 1.43039477E-08
  623 1.43243660E-08
  624 1.43351482E-08
  625 1.43528816E-08
  626 1.43168579E-08
  627 1.43457318E-08
  628 1.43566131E-08
  629 1.43823390E-08
  630 1.43676078E-08
  631 1.43825929E-08
  632 1.44012608E-08
  633 1.44134537E-08
  634 1.43377841E-08
  635 1.43443312E-08
  636 1.43637014E-08
  637 1.43677103E-08
  638 1.43441325E-08
  639 1.43373191E-08
  640 1.43650067E-08
  641 1.43556964E-08
  642 1.43907735E-08
  643 1.43922237E-08
  644 1.44189734E-08
  645 1.44178636E-08
  646 1.43870141E-08
  647 1.43752233E-08
  648 1.44101659E-08
  649 1.43959306E-08
  650 1.43240399E-08
  651 1.43044751E-08
  652 1.43399041E-08
  653 1.43177869E-08
  654 1.42788493E-08
  655 1.42474465E-08
  656 1.42895494E-08
  657 1.42554589E-08
  658 1.43569500E-08
  659 1.43323274E-08
  660 1.43752294E-08
  661 1.43481699E-08
  662 1.43015380E-08
  663 1.42648309E-08
  664 1.43149118E-08
  665 1.42756841E-08
  666 1.42158611E-08
  667 1.41711946E-08
  668 1.42225377E-08
  669 1.41750888E-08
  670 1.42308026E-08
  671 1.41806877E-08
  672 1.41230275E-08
  673 1.40670210E-08
  674 1.41258794E-08
  675 1.40670494E-08
  676 1.40050081E-08
  677 1.39421405E-08
  678 1.38769283E-08
  679 1.33872007E-08
  680 1.34140425E-08
  681 1.33647602E-08
  682 1.33388216E-08
  683 1.33734587E-08
  684 1.33952033E-08
  685 1.38104450E-08
  686 1.34034569E-08
  687 1.38076734E-08
  688 1.38267235E-08
  689 1.38368372E-08
  690 1.38575864E-08
  691 1.38441671E-08
  692 1.38492493E-08
  693 1.38225212E-08
  694 1.38311328E-08
  695 1.38182306E-08
  696 1.38251425E-08
  697 1.38368368E-08
  698 1.38402185E-08
  699 1.38290128E-08
  700 1.38304787E-08
  701 1.38624856E-08
  702 1.38662129E-08
  703 1.38526348E-08
  704 1.38548301E-08
  705 1.38696379E-08
  706 1.38728418E-08
  707 1.38568684E-08
  708 1.38588251E-08
  709 1.38418821E-08
  710 1.38424383E-08
  711 1.38302012E-08
  712 1.38288518E-08
  713 1.38427918E-08
  714 1.38433090E-08
  715 1.38273590E-08
  716 1.38262333E-08
  717 1.38762562E-08
  718 1.38802636E-08
  719 1.38611839E-08
  720 1.38643764E-08
  721 1.38851847E-08
  722 1.38912672E-08
  723 1.38687669E-08
  724 1.38746406E-08
  725 1.38444353E-08
  726 1.38466557E-08
  727 1.38259393E-08
  728 1.38270211E-08
  729 1.38503829E-08
  730 1.38559429E-08
  731 1.38299443E-08
  732 1.38350799E-08
  733 1.38986769E-08
  734 1.39074902E-08
  735 1.38821923E-08
  736 1.38915191E-08
  737 1.39176910E-08
  738 1.39291702E-08
  739 1.39026160E-08
  740 1.39153757E-08
  741 1.38581182E-08
  742 1.38829395E-08
  743 1.39417278E-08
  744 1.39550790E-08
  745 1.39295917E-08
  746 1.39449653E-08
  747 1.39727925E-08
  748 1.39164648E-08
  749 1.39561292E-08
  750 1.40022259E-08
  751 1.40270372E-08
  752 1.39980246E-08
  753 1.40374271E-08
  754 1.40425954E-08
  755 1.40125744E-08
  756 1.40693362E-08
  757 1.40585160E-08
  758 1.39958008E-08
  759 1.39570463E-08
  760 1.40609622E-08
  761 1.40433828E-08
  762 1.38926641E-08
  763 1.37936581E-08
  764 1.37356512E-08
  765 1.38576434E-08
  766 1.38066334E-08
  767 1.40027385E-08
  768 1.39364625E-08
  769 1.36734392E-08
  770 1.35474787E-08
  771 1.38423268E-08
  772 1.37540174E-08
  773 1.33487787E-08
  774 1.31090609E-08
  775 1.35997725E-08
  776 1.34125917E-08
  777 1.28290841E-08
  778 1.25150690E-08
  779 1.31936320E-08
  780 1.29480978E-08
  781 1.21828312E-08
  782 1.18094078E-08
  783 1.16516967E-08
  784 1.20728492E-08
  785 1.19298290E-08
  786 1.26883930E-08
  787 1.23526472E-08
  788 1.22260317E-08
  789 1.26454062E-08
  790 1.25365805E-08
  791 1.15115820E-08
  792 1.13956834E-08
  793 1.18026466E-08
  794 1.16973297E-08
  795 1.13101344E-08
  796 1.12598436E-08
  797 1.16194797E-08
  798 1.15735929E-08
  799 1.22288246E-08
  800 1.21008975E-08
  801 1.12478226E-08
  802 1.12747439E-08
  803 1.15624396E-08
  804 1.15866541E-08
  805 1.13972809E-08
  806 1.14989323E-08
  807 1.17118440E-08
  808 1.18038971E-08
  809 1.21587179E-08
  810 1.20476192E-08
  811 1.21289041E-08
  812 1.23998892E-08
  813 1.24694712E-08
  814 1.16297018E-08
  815 1.17830479E-08
  816 1.19224015E-08
  817 1.20614170E-08
  818 1.19522735E-08
  819 1.21311087E-08
  820 1.22148717E-08
  821 1.23770911E-08
  822 1.22336957E-08
  823 1.23567597E-08
  824 1.25593972E-08
  825 1.26652231E-08
  826 1.27027782E-08
  827 1.25144492E-08
  828 1.26756620E-08
  829 1.28482805E-08
  830 1.28715420E-08
  831 1.30285123E-08
  832 1.29774046E-08
  833 1.32480183E-08
  834 1.31701785E-08
  835 1.32957118E-08
  836 1.34312756E-08
  837 1.34345900E-08
  838 1.35583804E-08
  839 1.34992626E-08
  840 1.37053111E-08
  841 1.36713015E-08
  842 1.38756390E-08
  843 1.39005423E-08
  844 1.40671963E-08
  845 1.40458396E-08
  846 1.41844113E-08
  847 1.42064373E-08
  848 1.43196190E-08
  849 1.42935562E-08
  850 1.43749669E-08
  851 1.44079036E-08
  852 1.44720915E-08
  853 1.44297782E-08
  854 1.44586075E-08
  855 1.45125630E-08
  856 1.45292907E-08
  857 1.44616682E-08
  858 1.44389637E-08
  859 1.45219223E-08
  860 1.44899494E-08
  861 1.43947912E-08
  862 1.43653856E-08
  863 1.44156794E-08
  864 1.43840403E-08
  865 1.43297652E-08
  866 1.42881378E-08
  867 1.43461874E-08
  868 1.43023064E-08
  869 1.44329898E-08
  870 1.43642594E-08
  871 1.43182951E-08
  872 1.43840510E-08
  873 1.43361964E-08
  874 1.42408023E-08
  875 1.41881669E-08
  876 1.42526778E-08
  877 1.41976962E-08
  878 1.41307662E-08
  879 1.40692741E-08
  880 1.41378886E-08
  881 1.40739289E-08
  882 1.42665604E-08
  883 1.42094350E-08
  884 1.42825673E-08
  885 1.42235270E-08
  886 1.41474363E-08
  887 1.40812355E-08
  888 1.41595815E-08
  889 1.40930653E-08
  890 1.40045124E-08
  891 1.39391007E-08
  892 1.40081932E-08
  893 1.39388956E-08
  894 1.38710887E-08
  895 1.38030047E-08
  896 1.38682867E-08
  897 1.37976299E-08
  898 1.40134623E-08
  899 1.39418198E-08
  900 1.40218589E-08
  901 1.39481458E-08
  902 1.38688537E-08
  903 1.37958591E-08
  904 1.38730976E-08
  905 1.37980359E-08
  906 1.37361682E-08
  907 1.37282894E-08
  908 1.36616863E-08
  909 1.35992454E-08
  910 1.35423357E-08
  911 1.37242399E-08
  912 1.36554629E-08
  913 1.37243982E-08
  914 1.36536910E-08
  915 1.35910020E-08
  916 1.35322752E-08
  917 1.35874314E-08
  918 1.35270810E-08
  919 1.34805798E-08
  920 1.34370318E-08
  921 1.34739777E-08
  922 1.34292716E-08
  923 1.34025155E-08
  924 1.33938724E-08
  925 1.33684113E-08
  926 1.33532226E-08
  927 1.33483455E-08
  928 1.33535435E-08
  929 1.33189144E-08
  930 1.32450340E-08
  931 1.32847644E-08
  932 1.33297426E-08
  933 1.32964726E-08
  934 1.33412840E-08
  935 1.33482433E-08
  936 1.33825409E-08
  937 1.33581908E-08
  938 1.33920186E-08
  939 1.34119628E-08
  940 1.38050272E-08
  941 1.34207251E-08
  942 1.38025444E-08
  943 1.33686870E-08
  944 1.34019070E-08
  945 1.33797585E-08
  946 1.34122257E-08
  947 1.37904836E-08
  948 1.38002734E-08
  949 1.37905155E-08
  950 1.37982765E-08
  951 1.38138735E-08
  952 1.38188807E-08
  953 1.38094824E-08
  954 1.38123743E-08
  955 1.38157246E-08
  956 1.38030962E-08
  957 1.37947404E-08
  958 1.38086778E-08
  959 1.37994985E-08
  960 1.37771442E-08
  961 1.37576066E-08
  962 1.37940674E-08
  963 1.37970577E-08
  964 1.37444228E-08
  965 1.37424033E-08
  966 1.38119889E-08
  967 1.38402926E-08
  968 1.37563291E-08
  969 1.37880852E-08
  970 1.38869516E-08
  971 1.39870332E-08
  972 1.40423075E-08
  973 1.39691571E-08
  974 1.40415562E-08
  975 1.41274472E-08
  976 1.41660022E-08
  977 1.41606844E-08
  978 1.40076384E-08
  979 1.39679652E-08
  980 1.41825296E-08
  981 1.41839747E-08
  982 1.38276137E-08
  983 1.37617303E-08
  984 1.39533801E-08
  985 1.39008220E-08
  986 1.36893486E-08
  987 1.36106599E-08
  988 1.38429899E-08
  989 1.37801303E-08
  990 1.41266225E-08
  991 1.40550328E-08
  992 1.35791958E-08
  993 1.34095718E-08
  994 1.39719229E-08
  995 1.37915261E-08
  996 1.37346332E-08
  997 1.40164815E-08
  998 1.39802377E-08
  999 1.32313489E-08
  1000 1.29475746E-08
  1001 1.28575667E-08
  1002 1.32555703E-08
  1003 1.31850414E-08
  1004 1.36772144E-08
  1005 1.36204802E-08
  1006 1.39441039E-08
  1007 1.39088163E-08
  1008 1.35658919E-08
  1009 1.35151442E-08
  1010 1.38752091E-08
  1011 1.38442073E-08
  1012 1.29179070E-08
  1013 1.28302973E-08
  1014 1.36279190E-08
  1015 1.34046508E-08
  1016 1.34855715E-08
  1017 1.37767062E-08
  1018 1.38663147E-08
  1019 1.29065826E-08
  1020 1.27637017E-08
  1021 1.28209005E-08
  1022 1.31340718E-08
  1023 1.31784659E-08
  1024 1.36722267E-08
  1025 1.35061635E-08
  1026 1.35375813E-08
  1027 1.38754381E-08
  1028 1.38939388E-08
  1029 1.28951261E-08
  1030 1.29827873E-08
  1031 1.32364796E-08
  1032 1.33054144E-08
  1033 1.32770359E-08
  1034 1.35791840E-08
  1035 1.36291831E-08
  1036 1.39192193E-08
  1037 1.39503993E-08
  1038 1.38614538E-08
  1039 1.34692435E-08
  1040 1.36620193E-08
  1041 1.39684720E-08
  1042 1.39437026E-08
  1043 1.40097260E-08
  1044 1.41614502E-08
  1045 1.41915939E-08
  1046 1.38265031E-08
  1047 1.39919524E-08
  1048 1.40569374E-08
  1049 1.41195792E-08
  1050 1.42385470E-08
  1051 1.42850349E-08
  1052 1.42812229E-08
  1053 1.43139478E-08
  1054 1.44944888E-08
  1055 1.46064254E-08
  1056 1.46443481E-08
  1057 1.46002690E-08
  1058 1.44813041E-08
  1059 1.44056172E-08
  1060 1.43560864E-08
  1061 1.44289954E-08
  1062 1.43780213E-08
  1063 1.45356100E-08
  1064 1.44418734E-08
  1065 1.43007970E-08
  1066 1.42400950E-08
  1067 1.43213257E-08
  1068 1.42592363E-08
  1069 1.41744731E-08
  1070 1.41065420E-08
  1071 1.41940210E-08
  1072 1.41232046E-08
  1073 1.43253610E-08
  1074 1.42150490E-08
  1075 1.41431617E-08
  1076 1.42390880E-08
  1077 1.41664782E-08
  1078 1.40335930E-08
  1079 1.39581153E-08
  1080 1.40488385E-08
  1081 1.39719303E-08
  1082 1.38812931E-08
  1083 1.38044680E-08
  1084 1.38936711E-08
  1085 1.38154157E-08
  1086 1.40677258E-08
  1087 1.39897446E-08
  1088 1.40903366E-08
  1089 1.40116572E-08
  1090 1.39104097E-08
  1091 1.38310820E-08
  1092 1.39316262E-08
  1093 1.38516029E-08
  1094 1.37291044E-08
  1095 1.36567417E-08
  1096 1.37386482E-08
  1097 1.36649324E-08
  1098 1.35889330E-08
  1099 1.35271769E-08
  1100 1.35958496E-08
  1101 1.35329278E-08
  1102 1.37532568E-08
  1103 1.36785139E-08
  1104 1.37730854E-08
  1105 1.36976596E-08
  1106 1.36084537E-08
  1107 1.35446251E-08
  1108 1.36269358E-08
  1109 1.35624746E-08
  1110 1.34728461E-08
  1111 1.34271206E-08
  1112 1.34775677E-08
  1113 1.34309742E-08
  1114 1.33909322E-08
  1115 1.33649249E-08
  1116 1.33940976E-08
  1117 1.33675930E-08
  1118 1.34884497E-08
  1119 1.34411508E-08
  1120 1.35057102E-08
  1121 1.34578779E-08
  1122 1.34036934E-08
  1123 1.33767423E-08
  1124 1.34199533E-08
  1125 1.33926086E-08
  1126 1.33494357E-08
  1127 1.33444961E-08
  1128 1.33518005E-08
  1129 1.33467465E-08
  1130 1.33498534E-08
  1131 1.33650067E-08
  1132 1.33521655E-08
  1133 1.33675383E-08
  1134 1.33606409E-08
  1135 1.33554129E-08
  1136 1.33761910E-08
  1137 1.33707246E-08
  1138 1.33607847E-08
  1139 1.33762244E-08
  1140 1.33759324E-08
  1141 1.33912758E-08
  1142 1.33892548E-08
  1143 1.34217478E-08
  1144 1.33921407E-08
  1145 1.34250979E-08
  1146 1.34615404E-08
  1147 1.34654389E-08
  1148 1.35121465E-08
  1149 1.34009916E-08
  1150 1.34341938E-08
  1151 1.34160059E-08
  1152 1.34492197E-08
  1153 1.34748411E-08
  1154 1.35218985E-08
  1155 1.34899167E-08
  1156 1.35370512E-08
  1157 1.35642009E-08
  1158 1.36206145E-08
  1159 1.35743296E-08
  1160 1.36311320E-08
  1161 1.35895766E-08
  1162 1.36464816E-08
  1163 1.36913638E-08
  1164 1.37541614E-08
  1165 1.37068170E-08
  1166 1.37697127E-08
  1167 1.38187498E-08
  1168 1.38343889E-08
  1169 1.39001596E-08
  1170 1.39664319E-08
  1171 1.40327021E-08
  1172 1.31456232E-08
  1173 1.30140946E-08
  1174 1.30842908E-08
  1175 1.31599514E-08
  1176 1.30995393E-08
  1177 1.31758553E-08
  1178 1.31989269E-08
  1179 1.32576146E-08
  1180 1.32123757E-08
  1181 1.32712869E-08
  1182 1.33090735E-08
  1183 1.33535777E-08
  1184 1.33226200E-08
  1185 1.33666686E-08
  1186 1.32271409E-08
  1187 1.32861194E-08
  1188 1.32433097E-08
  1189 1.33021874E-08
  1190 1.33371711E-08
  1191 1.33806087E-08
  1192 1.33527935E-08
  1193 1.33954588E-08
  1194 1.33914371E-08
  1195 1.34230008E-08
  1196 1.34037613E-08
  1197 1.34342664E-08
  1198 1.37910827E-08
  1199 1.37966315E-08
  1200 1.37922755E-08
  1201 1.37954349E-08
  1202 1.34167785E-08
  1203 1.37866749E-08
  1204 1.34305463E-08
  1205 1.37918128E-08
  1206 1.37942013E-08
  1207 1.37948037E-08
  1208 1.37969867E-08
  1209 1.37948788E-08
  1210 1.37921242E-08
  1211 1.37720152E-08
  1212 1.37892504E-08
  1213 1.37784123E-08
  1214 1.37862894E-08
  1215 1.37721321E-08
  1216 1.37632643E-08
  1217 1.37448808E-08
  1218 1.37534375E-08
  1219 1.37313498E-08
  1220 1.37419494E-08
  1221 1.37295300E-08
  1222 1.37164906E-08
  1223 1.37063188E-08
  1224 1.36903030E-08
  1225 1.37244229E-08
  1226 1.37031188E-08
  1227 1.37071145E-08
  1228 1.36820576E-08
  1229 1.36822341E-08
  1230 1.36630349E-08
  1231 1.36575533E-08
  1232 1.36349835E-08
  1233 1.36875384E-08
  1234 1.36792762E-08
  1235 1.36474401E-08
  1236 1.36354748E-08
  1237 1.36156877E-08
  1238 1.36017975E-08
  1239 1.36091296E-08
  1240 1.37033706E-08
  1241 1.37151050E-08
  1242 1.36689220E-08
  1243 1.36808549E-08
  1244 1.37323048E-08
  1245 1.37548354E-08
  1246 1.36989417E-08
  1247 1.37230335E-08
  1248 1.36192881E-08
  1249 1.36581563E-08
  1250 1.37839280E-08
  1251 1.38587366E-08
  1252 1.37243708E-08
  1253 1.38018702E-08
  1254 1.38484687E-08
  1255 1.37759973E-08
  1256 1.38265995E-08
  1257 1.39303982E-08
  1258 1.39729844E-08
  1259 1.39147968E-08
  1260 1.39618370E-08
  1261 1.40160944E-08
  1262 1.40588952E-08
  1263 1.40096529E-08
  1264 1.40573617E-08
  1265 1.38980790E-08
  1266 1.39496943E-08
  1267 1.38805888E-08
  1268 1.39368787E-08
  1269 1.40023256E-08
  1270 1.40550368E-08
  1271 1.39944102E-08
  1272 1.40521911E-08
  1273 1.41239975E-08
  1274 1.41776551E-08
  1275 1.41349472E-08
  1276 1.42297257E-08
  1277 1.42760376E-08
  1278 1.42426655E-08
  1279 1.42945095E-08
  1280 1.42441767E-08
  1281 1.42962402E-08
  1282 1.43000622E-08
  1283 1.43757266E-08
  1284 1.43329776E-08
  1285 1.43448715E-08
  1286 1.44270291E-08
  1287 1.44357652E-08
  1288 1.44555355E-08
  1289 1.44979120E-08
  1290 1.45251251E-08
  1291 1.43550165E-08
  1292 1.43971004E-08
  1293 1.44730060E-08
  1294 1.44886136E-08
  1295 1.45505862E-08
  1296 1.45748160E-08
  1297 1.46030369E-08
  1298 1.45222539E-08
  1299 1.43588108E-08
  1300 1.43451878E-08
  1301 1.47285019E-08
  1302 1.47870605E-08
  1303 1.42076091E-08
  1304 1.41934103E-08
  1305 1.44654655E-08
  1306 1.44717242E-08
  1307 1.43294765E-08
  1308 1.48547883E-08
  1309 1.49250093E-08
  1310 1.43261592E-08
  1311 1.42467726E-08
  1312 1.42399464E-08
  1313 1.46037566E-08
  1314 1.46026583E-08
  1315 1.49851967E-08
  1316 1.51167880E-08
  1317 1.42360702E-08
  1318 1.42352921E-08
  1319 1.45998000E-08
  1320 1.45952660E-08
  1321 1.44147903E-08
  1322 1.51137575E-08
  1323 1.50792319E-08
  1324 1.44179294E-08
  1325 1.44308271E-08
  1326 1.50241814E-08
  1327 1.49642578E-08
  1328 1.44551724E-08
  1329 1.43755462E-08
  1330 1.43874995E-08
  1331 1.45679301E-08
  1332 1.45786512E-08
  1333 1.49125964E-08
  1334 1.47699336E-08
  1335 1.47636631E-08
  1336 1.49636378E-08
  1337 1.49413177E-08
  1338 1.44173158E-08
  1339 1.44479870E-08
  1340 1.45918894E-08
  1341 1.46072500E-08
  1342 1.45643803E-08
  1343 1.47610457E-08
  1344 1.47617483E-08
  1345 1.49237043E-08
  1346 1.49105248E-08
  1347 1.48337028E-08
  1348 1.47419918E-08
  1349 1.47954900E-08
  1350 1.48248707E-08
  1351 1.48103794E-08
  1352 1.47345946E-08
  1353 1.45816302E-08
  1354 1.43821747E-08
  1355 1.42447734E-08
  1356 1.44472917E-08
  1357 1.43109573E-08
  1358 1.41166986E-08
  1359 1.40377072E-08
  1360 1.41467829E-08
  1361 1.40678700E-08
  1362 1.39573715E-08
  1363 1.38770416E-08
  1364 1.39876256E-08
  1365 1.39073830E-08
  1366 1.41598865E-08
  1367 1.40014654E-08
  1368 1.37982092E-08
  1369 1.37224572E-08
  1370 1.38286188E-08
  1371 1.37529026E-08
  1372 1.36513952E-08
  1373 1.35865861E-08
  1374 1.36818338E-08
  1375 1.36169672E-08
  1376 1.38459493E-08
  1377 1.37054101E-08
  1378 1.35294681E-08
  1379 1.34812819E-08
  1380 1.35597366E-08
  1381 1.35113806E-08
  1382 1.34430087E-08
  1383 1.34153258E-08
  1384 1.34728813E-08
  1385 1.34449193E-08
  1386 1.35918243E-08
  1387 1.35147906E-08
  1388 1.33985853E-08
  1389 1.33928141E-08
  1390 1.34278511E-08
  1391 1.34217099E-08
  1392 1.33977368E-08
  1393 1.34128151E-08
  1394 1.34262269E-08
  1395 1.34408706E-08
  1396 1.34639058E-08
  1397 1.34573339E-08
  1398 1.35065582E-08
  1399 1.34995027E-08
  1400 1.34613292E-08
  1401 1.34753737E-08
  1402 1.35028694E-08
  1403 1.35161600E-08
  1404 1.34372988E-08