# File generated by Flopy version 3.9.1 on 01/16/2026 at 23:47:25.
BEGIN options
  SAVE_FLOWS
END options

BEGIN dimensions
  MAXBOUND  43344
END dimensions

BEGIN period  1
  28440 -0.00000000E+00
  28442 -0.00000000E+00
  28443 -0.00000000E+00
  28449 -0.00000000E+00
  28451 -0.00000000E+00
  28452 -0.00000000E+00
  28454 -0.00000000E+00
  28455 -0.00000000E+00
  28466 -0.00000000E+00
  28486 -2.99079067E-04
  28489 -5.38342320E-04
  29023 -0.00000000E+00
  29025 -0.00000000E+00
  29026 -0.00000000E+00
  29027 -0.00000000E+00
  29028 -4.78526507E-04
  29029 -4.78526507E-04
  29031 -0.00000000E+00
  29033 -0.00000000E+00
  29034 -4.78526507E-04
  29035 -4.78526507E-04
  29036 -4.78526507E-04
  29037 -4.78526507E-04
  29038 -0.00000000E+00
  29039 -0.00000000E+00
  29040 -0.00000000E+00
  29041 -0.00000000E+00
  29044 -0.00000000E+00
  29046 -0.00000000E+00
  29047 -0.00000000E+00
  29048 -0.00000000E+00
  29049 -0.00000000E+00
  29050 -0.00000000E+00
  29051 -0.00000000E+00
  29052 -0.00000000E+00
  29053 -0.00000000E+00
  29055 -0.00000000E+00
  29057 -0.00000000E+00
  29058 -0.00000000E+00
  29059 -0.00000000E+00
  29060 -0.00000000E+00
  29061 -0.00000000E+00
  29066 -0.00000000E+00
  29067 -0.00000000E+00
  29070 -0.00000000E+00
  29071 -0.00000000E+00
  29072 -0.00000000E+00
  29073 -0.00000000E+00
  29074 -0.00000000E+00
  29075 -0.00000000E+00
  29076 -0.00000000E+00
  29077 -0.00000000E+00
  29078 -0.00000000E+00
  29079 -0.00000000E+00
  29081 -0.00000000E+00
  29082 -0.00000000E+00
  29083 -0.00000000E+00
  29084 -0.00000000E+00
  29085 -0.00000000E+00
  29096 -0.00000000E+00
  29118 -0.00000000E+00
  29119 -0.00000000E+00
  29120 -0.00000000E+00
  29121 -0.00000000E+00
  29126 -0.00000000E+00
  29127 -0.00000000E+00
  29128 -0.00000000E+00
  29129 -0.00000000E+00
  29154 -3.76839624E-03
  29158 -4.78526507E-04
  29159 -4.78526507E-04
  29160 -2.34477988E-02
  29161 -1.67484277E-03
  29162 -3.17023811E-03
  29163 -5.44323901E-03
  29165 -1.42780346E-01
  29166 -4.00765949E-03
  29167 -5.38342320E-04
  29774 -0.00000000E+00
  29775 -0.00000000E+00
  29777 -0.00000000E+00
  29818 -0.00000000E+00
  29819 -0.00000000E+00
  29820 -0.00000000E+00
  29821 -0.00000000E+00
  29822 -0.00000000E+00
  29824 -0.00000000E+00
  29825 -1.79447440E-04
  29826 -0.00000000E+00
  29827 -0.00000000E+00
  29830 -0.00000000E+00
  29831 -1.79447440E-04
  29832 -0.00000000E+00
  29833 -1.79447440E-04
  29836 -1.79447440E-04
  29840 -2.99079067E-04
  29841 -0.00000000E+00
  29842 -1.79447440E-04
  29843 -2.99079067E-04
  29844 -1.79447440E-04
  29845 -2.99079067E-04
  29846 -2.99079067E-04
  29847 -0.00000000E+00
  29848 -2.99079067E-04
  29849 -0.00000000E+00
  29855 -1.19631627E-04
  29866 -1.19631627E-04
  29867 -0.00000000E+00
  29868 -1.19631627E-04
  29869 -0.00000000E+00
  29870 -0.00000000E+00
  29871 -0.00000000E+00
  29872 -0.00000000E+00
  29873 -0.00000000E+00
  29875 -0.00000000E+00
  29877 -0.00000000E+00
  29878 -0.00000000E+00
  29879 -0.00000000E+00
  29880 -0.00000000E+00
  29881 -0.00000000E+00
  29882 -0.00000000E+00
  29883 -4.78526507E-04
  29884 -0.00000000E+00
  29885 -0.00000000E+00
  29886 -4.78526507E-04
  29887 -1.67484277E-03
  29888 -0.00000000E+00
  29889 -4.18710693E-04
  29890 -0.00000000E+00
  29891 -0.00000000E+00
  29892 -0.00000000E+00
  29893 -0.00000000E+00
  29894 -0.00000000E+00
  29895 -4.18710693E-04
  29896 -0.00000000E+00
  29897 -4.18710693E-04
  29898 -1.67484277E-03
  29899 -3.17023811E-03
  29900 -4.18710693E-04
  29901 -2.87115904E-03
  29902 -3.17023811E-03
  29903 -5.14415995E-02
  29904 -2.87115904E-03
  29905 -5.02452832E-03
  29906 -4.18710693E-04
  29907 -2.87115904E-03
  29908 -4.18710693E-04
  29909 -2.87115904E-03
  29910 -2.87115904E-03
  29911 -5.02452832E-03
  29912 -2.87115904E-03
  29913 -5.02452832E-03
  29914 -0.00000000E+00
  29915 -0.00000000E+00
  29916 -0.00000000E+00
  29917 -0.00000000E+00
  29918 -0.00000000E+00
  29919 -1.13650045E-03
  29920 -0.00000000E+00
  29921 -1.13650045E-03
  29922 -0.00000000E+00
  29923 -0.00000000E+00
  29924 -0.00000000E+00
  29925 -0.00000000E+00
  29926 -0.00000000E+00
  29927 -1.13650045E-03
  29928 -0.00000000E+00
  29929 -1.13650045E-03
  29930 -1.13650045E-03
  29931 -2.87115904E-03
  29932 -1.13650045E-03
  29933 -2.87115904E-03
  29934 -2.87115904E-03
  29935 -7.96746634E-02
  29936 -2.87115904E-03
  29937 -7.96746634E-02
  29938 -1.13650045E-03
  29939 -2.87115904E-03
  29940 -1.13650045E-03
  29941 -6.22084459E-03
  29942 -2.87115904E-03
  29943 -7.96746634E-02
  29944 -6.22084459E-03
  29945 -1.15444520E-02
  29946 -5.14415995E-02
  29947 -1.52889219E-01
  29948 -5.02452832E-03
  29949 -6.46010784E-02
  29950 -1.33389264E-02
  29951 -7.96746634E-02
  29952 -6.46010784E-02
  29953 -1.15444520E-02
  29954 -2.93097485E-03
  29955 -4.78526507E-02
  29956 -5.86194971E-03
  29957 -3.34968555E-03
  29958 -1.43557952E-03
  29959 -1.55521115E-03
  29960 -5.98158133E-04
  29961 -1.13650045E-03
  30527 -0.00000000E+00
  30528 -1.19631627E-04
  30530 -1.19631627E-04
  30533 -1.19631627E-04
  30534 -0.00000000E+00
  30537 -1.79447440E-04
  30568 -0.00000000E+00
  30569 -0.00000000E+00
  30570 -0.00000000E+00
  30571 -0.00000000E+00
  30572 -0.00000000E+00
  30573 -0.00000000E+00
  30574 -0.00000000E+00
  30575 -0.00000000E+00
  30576 -0.00000000E+00
  30577 -0.00000000E+00
  30578 -0.00000000E+00
  30579 -0.00000000E+00
  30580 -0.00000000E+00
  30581 -0.00000000E+00
  30582 -0.00000000E+00
  30583 -0.00000000E+00
  30597 -0.00000000E+00
  30599 -0.00000000E+00
  30600 -0.00000000E+00
  30601 -0.00000000E+00
  30602 -0.00000000E+00
  30603 -0.00000000E+00
  30604 -0.00000000E+00
  30605 -0.00000000E+00
  30606 -0.00000000E+00
  30607 -0.00000000E+00
  30608 -0.00000000E+00
  30609 -0.00000000E+00
  30610 -0.00000000E+00
  30611 -4.18710693E-04
  30612 -0.00000000E+00
  30613 -0.00000000E+00
  30614 -4.18710693E-04
  30615 -1.79447440E-04
  30616 -0.00000000E+00
  30617 -0.00000000E+00
  30618 -0.00000000E+00
  30619 -0.00000000E+00
  30620 -0.00000000E+00
  30621 -1.13650045E-03
  30622 -0.00000000E+00
  30623 -1.13650045E-03
  30624 -0.00000000E+00
  30625 -1.79447440E-04
  30626 -0.00000000E+00
  30627 -1.79447440E-04
  30628 -1.79447440E-04
  30629 -1.79447440E-04
  30630 -1.79447440E-04
  30631 -1.79447440E-04
  30632 -1.13650045E-03
  30633 -6.22084459E-03
  30634 -1.13650045E-03
  30635 -6.22084459E-03
  30636 -6.22084459E-03
  30637 -1.15444520E-02
  30638 -6.22084459E-03
  30639 -1.15444520E-02
  30640 -1.79447440E-04
  30641 -7.41716085E-03
  30642 -1.79447440E-04
  30643 -7.41716085E-03
  30644 -7.41716085E-03
  30645 -1.49539533E-03
  30646 -7.41716085E-03
  30647 -1.49539533E-03
  30648 -0.00000000E+00
  30649 -1.79447440E-03
  30650 -0.00000000E+00
  30651 -1.79447440E-03
  30652 -1.79447440E-03
  30653 -8.13495061E-03
  30654 -1.79447440E-03
  30655 -8.13495061E-03
  30656 -0.00000000E+00
  30657 -1.79447440E-03
  30658 -1.79447440E-04
  30659 -1.37576371E-03
  30660 -1.79447440E-03
  30661 -8.13495061E-03
  30662 -1.37576371E-03
  30663 -2.39263253E-04
  30664 -8.13495061E-03
  30665 -4.84508088E-03
  30666 -8.13495061E-03
  30667 -4.84508088E-03
  30668 -4.84508088E-03
  30669 -1.25613208E-03
  30670 -4.84508088E-03
  30671 -1.25613208E-03
  30672 -8.13495061E-03
  30673 -4.84508088E-03
  30674 -2.39263253E-04
  30675 -1.19631627E-03
  30676 -4.84508088E-03
  30677 -1.25613208E-03
  30678 -1.19631627E-03
  30679 -2.99079067E-04
  30680 -1.15444520E-02
  30681 -1.15444520E-02
  30682 -1.15444520E-02
  30683 -1.15444520E-02
  30684 -2.93097485E-03
  30685 -2.93097485E-03
  30686 -2.93097485E-03
  30687 -2.93097485E-03
  30688 -1.49539533E-03
  30689 -1.49539533E-03
  30690 -1.49539533E-03
  30691 -1.49539533E-03
  30692 -1.31594789E-03
  30693 -1.31594789E-03
  30694 -1.31594789E-03
  30695 -1.31594789E-03
  30696 -3.34968555E-03
  30697 -3.34968555E-03
  30698 -3.34968555E-03
  30699 -3.34968555E-03
  30700 -1.43557952E-03
  30701 -1.43557952E-03
  30702 -1.43557952E-03
  30703 -1.43557952E-03
  30704 -1.01686883E-03
  30705 -1.01686883E-03
  30706 -1.01686883E-03
  30707 -1.01686883E-03
  30708 -4.78526507E-04
  30709 -4.78526507E-04
  30710 -4.78526507E-04
  30711 -4.78526507E-04
  30712 -1.25613208E-03
  30713 -1.25613208E-03
  30714 -1.25613208E-03
  30715 -1.25613208E-03
  30716 -0.00000000E+00
  30717 -0.00000000E+00
  30718 -0.00000000E+00
  30719 -0.00000000E+00
  30720 -1.25613208E-03
  30721 -1.25613208E-03
  30722 -2.99079067E-04
  30723 -2.99079067E-04
  30724 -0.00000000E+00
  30725 -0.00000000E+00
  30726 -0.00000000E+00
  30727 -0.00000000E+00
  30728 -0.00000000E+00
  30729 -0.00000000E+00
  30730 -0.00000000E+00
  30731 -0.00000000E+00
  30732 -3.58894880E-04
  30733 -3.58894880E-04
  30734 -3.58894880E-04
  30735 -3.58894880E-04
  30736 -0.00000000E+00
  30737 -0.00000000E+00
  30738 -0.00000000E+00
  30739 -0.00000000E+00
  30740 -3.58894880E-04
  30741 -3.58894880E-04
  30742 -0.00000000E+00
  30743 -0.00000000E+00
  30744 -4.00765949E-03
  30745 -3.76839624E-03
  30746 -1.19631627E-04
  30747 -3.58894880E-04
  30749 -3.58894880E-04
  30750 -1.79447440E-04
  30751 -3.58894880E-04
  30752 -1.79447440E-04
  31262 -0.00000000E+00
  31264 -0.00000000E+00
  31265 -0.00000000E+00
  31266 -0.00000000E+00
  31267 -0.00000000E+00
  31268 -0.00000000E+00
  31273 -5.98158133E-05
  31274 -1.79447440E-04
  31275 -5.98158133E-05
  31276 -1.79447440E-04
  31298 -1.79447440E-04
  31300 -0.00000000E+00
  31309 -0.00000000E+00
  31310 -1.79447440E-04
  31311 -1.79447440E-04
  31312 -2.99079067E-04
  31313 -5.98158133E-05
  31314 -0.00000000E+00
  31315 -5.98158133E-05
  31316 -0.00000000E+00
  31317 -5.98158133E-05
  31318 -1.19631627E-04
  31319 -4.18710693E-04
  31320 -1.19631627E-04
  31321 -4.18710693E-04
  31322 -5.38342320E-04
  31324 -2.99079067E-04
  31325 -5.38342320E-04
  31326 -2.99079067E-04
  31327 -5.38342320E-04
  31328 -4.78526507E-04
  31329 -2.99079067E-04
  31330 -4.78526507E-04
  31331 -2.99079067E-04
  31333 -2.99079067E-04
  31334 -3.52913299E-03
  31335 -7.17789760E-04
  31336 -3.52913299E-03
  31337 -7.17789760E-04
  31338 -5.38342320E-04
  31339 -2.39263253E-03
  31340 -5.38342320E-04
  31341 -2.39263253E-03
  31342 -4.18710693E-04
  31343 -0.00000000E+00
  31344 -2.39263253E-04
  31345 -2.09355347E-03
  31346 -4.18710693E-04
  31347 -1.79447440E-04
  31348 -6.57973947E-04
  31349 -1.19631627E-03
  31350 -1.25613208E-03
  31351 -3.70858043E-03
  31352 -1.25613208E-03
  31353 -3.70858043E-03
  31354 -5.98158133E-03
  31355 -2.99079067E-03
  31356 -5.98158133E-03
  31357 -2.99079067E-03
  31358 -1.79447440E-04
  31359 -1.37576371E-03
  31360 -1.79447440E-04
  31361 -1.37576371E-03
  31362 -1.37576371E-03
  31363 -2.39263253E-04
  31364 -1.37576371E-03
  31365 -2.39263253E-04
  31366 -1.19631627E-03
  31367 -1.67484277E-03
  31368 -1.19631627E-03
  31369 -1.67484277E-03
  31370 -1.67484277E-03
  31371 -1.07668464E-03
  31372 -1.67484277E-03
  31373 -1.07668464E-03
  31374 -2.39263253E-04
  31375 -1.19631627E-03
  31376 -2.39263253E-04
  31377 -1.19631627E-03
  31378 -1.19631627E-03
  31379 -2.99079067E-04
  31380 -1.19631627E-03
  31381 -2.99079067E-04
  31382 -1.07668464E-03
  31383 -0.00000000E+00
  31384 -1.07668464E-03
  31385 -0.00000000E+00
  31386 -0.00000000E+00
  31387 -0.00000000E+00
  31388 -0.00000000E+00
  31389 -0.00000000E+00
  31390 -1.19631627E-03
  31391 -1.67484277E-03
  31392 -2.99079067E-03
  31393 -1.67484277E-03
  31394 -1.67484277E-03
  31395 -1.07668464E-03
  31396 -1.67484277E-03
  31397 -2.39263253E-04
  31398 -2.99079067E-03
  31399 -1.67484277E-03
  31400 -7.17789760E-04
  31401 -9.57053013E-04
  31402 -1.67484277E-03
  31403 -2.39263253E-04
  31404 -9.57053013E-04
  31405 -0.00000000E+00
  31406 -1.07668464E-03
  31407 -0.00000000E+00
  31408 -2.39263253E-04
  31409 -0.00000000E+00
  31410 -0.00000000E+00
  31411 -0.00000000E+00
  31412 -0.00000000E+00
  31413 -0.00000000E+00
  31414 -2.39263253E-04
  31415 -0.00000000E+00
  31416 -0.00000000E+00
  31417 -0.00000000E+00
  31418 -0.00000000E+00
  31419 -0.00000000E+00
  31420 -0.00000000E+00
  31421 -0.00000000E+00
  31422 -2.99079067E-04
  31423 -0.00000000E+00
  31424 -0.00000000E+00
  31425 -0.00000000E+00
  31426 -0.00000000E+00
  31427 -0.00000000E+00
  31428 -0.00000000E+00
  31429 -0.00000000E+00
  31430 -0.00000000E+00
  31431 -0.00000000E+00
  31432 -0.00000000E+00
  31433 -0.00000000E+00
  31434 -3.58894880E-04
  31435 -5.98158133E-05
  31436 -3.58894880E-04
  31437 -5.98158133E-05
  31438 -8.97237200E-04
  31440 -6.63955528E-03
  31997 -5.98158133E-05
  31998 -1.19631627E-04
  31999 -5.98158133E-05
  32000 -1.19631627E-04
  32005 -5.98158133E-05
  32006 -5.98158133E-05
  32007 -5.98158133E-05
  32008 -5.98158133E-05
  32009 -1.19631627E-04
  32010 -1.19631627E-04
  32011 -1.19631627E-04
  32012 -1.19631627E-04
  32013 -4.18710693E-04
  32014 -4.18710693E-04
  32015 -4.18710693E-04
  32016 -4.18710693E-04
  32017 -5.98158133E-05
  32018 -5.98158133E-05
  32019 -5.98158133E-05
  32020 -5.98158133E-05
  32021 -1.19631627E-04
  32022 -1.19631627E-04
  32023 -1.19631627E-04
  32024 -1.19631627E-04
  32029 -5.98158133E-05
  32030 -5.98158133E-05
  32031 -0.00000000E+00
  32032 -1.31594789E-03
  32034 -0.00000000E+00
  32036 -0.00000000E+00
  32037 -0.00000000E+00
  32038 -1.31594789E-03
  32039 -0.00000000E+00
  32040 -1.31594789E-03
  32041 -5.98158133E-05
  32042 -5.98158133E-05
  32043 -1.31594789E-03
  32044 -1.31594789E-03
  32045 -1.19631627E-04
  32046 -1.19631627E-04
  32047 -2.99079067E-04
  32048 -2.99079067E-04
  32049 -1.31594789E-03
  32050 -1.31594789E-03
  32051 -1.31594789E-03
  32052 -1.31594789E-03
  32053 -2.99079067E-04
  32054 -2.99079067E-04
  32055 -2.99079067E-04
  32056 -2.99079067E-04
  32057 -4.78526507E-04
  32058 -4.78526507E-04
  32059 -4.78526507E-04
  32060 -4.78526507E-04
  32061 -2.99079067E-04
  32062 -2.99079067E-04
  32063 -2.99079067E-04
  32064 -2.99079067E-04
  32065 -1.25613208E-03
  32066 -1.25613208E-03
  32067 -1.25613208E-03
  32068 -1.25613208E-03
  32069 -1.19631627E-04
  32070 -1.19631627E-04
  32071 -1.19631627E-04
  32072 -1.19631627E-04
  32073 -1.79447440E-04
  32074 -1.79447440E-04
  32075 -1.79447440E-04
  32076 -1.79447440E-04
  32077 -1.19631627E-04
  32078 -1.19631627E-04
  32079 -1.19631627E-04
  32080 -1.19631627E-04
  32081 -0.00000000E+00
  32082 -0.00000000E+00
  32083 -0.00000000E+00
  32084 -0.00000000E+00
  32085 -0.00000000E+00
  32086 -0.00000000E+00
  32087 -0.00000000E+00
  32088 -0.00000000E+00
  32089 -1.25613208E-03
  32090 -1.25613208E-03
  32091 -2.39263253E-04
  32092 -2.39263253E-04
  32093 -1.19631627E-04
  32094 -1.19631627E-04
  32095 -5.98158133E-05
  32096 -5.98158133E-05
  32097 -2.39263253E-04
  32098 -2.39263253E-04
  32099 -2.39263253E-04
  32100 -2.39263253E-04
  32101 -5.98158133E-05
  32102 -5.98158133E-05
  32103 -5.98158133E-05
  32104 -5.98158133E-05
  32105 -0.00000000E+00
  32106 -0.00000000E+00
  32107 -0.00000000E+00
  32108 -0.00000000E+00
  32109 -0.00000000E+00
  32110 -0.00000000E+00
  32111 -0.00000000E+00
  32112 -0.00000000E+00
  32113 -0.00000000E+00
  32114 -0.00000000E+00
  32115 -0.00000000E+00
  32116 -0.00000000E+00
  32117 -0.00000000E+00
  32118 -0.00000000E+00
  32119 -0.00000000E+00
  32120 -0.00000000E+00
  32121 -1.19631627E-04
  32122 -1.19631627E-04
  32123 -1.19631627E-04
  32124 -1.19631627E-04
  32125 -1.79447440E-04
  32126 -1.79447440E-04
  32127 -1.79447440E-04
  32128 -1.79447440E-04
  32129 -5.98158133E-04
  32130 -5.98158133E-04
  32131 -5.98158133E-04
  32132 -5.98158133E-04
  32133 -2.39263253E-04
  32134 -2.39263253E-04
  32135 -2.39263253E-04
  32136 -2.39263253E-04
  32137 -3.58894880E-04
  32138 -3.58894880E-04
  32139 -3.58894880E-04
  32140 -3.58894880E-04
  32141 -5.98158133E-04
  32142 -5.98158133E-04
  32143 -5.98158133E-04
  32144 -5.98158133E-04
  32145 -5.98158133E-05
  32146 -5.98158133E-05
  32147 -5.98158133E-05
  32148 -5.98158133E-05
  32149 -1.79447440E-04
  32150 -1.79447440E-04
  32151 -1.79447440E-04
  32152 -1.79447440E-04
  32153 -5.98158133E-04
  32154 -5.98158133E-04
  32155 -0.00000000E+00
  32156 -0.00000000E+00
  32157 -2.39263253E-04
  32158 -2.39263253E-04
  32159 -5.98158133E-05
  32160 -5.98158133E-05
  32161 -0.00000000E+00
  32162 -0.00000000E+00
  32163 -0.00000000E+00
  32164 -0.00000000E+00
  32165 -5.98158133E-05
  32166 -5.98158133E-05
  32167 -5.98158133E-05
  32168 -5.98158133E-05
  32169 -5.98158133E-05
  32170 -5.98158133E-05
  32171 -0.00000000E+00
  32172 -0.00000000E+00
  32173 -1.79447440E-04
  32174 -1.79447440E-04
  32175 -5.98158133E-05
  32176 -5.98158133E-05
  32177 -0.00000000E+00
  32178 -0.00000000E+00
  32179 -0.00000000E+00
  32180 -0.00000000E+00
  32181 -5.98158133E-05
  32182 -5.98158133E-05
  32183 -5.98158133E-05
  32184 -5.98158133E-05
  32185 -5.98158133E-04
  32186 -3.28986973E-03
  32187 -5.98158133E-04
  32188 -3.28986973E-03
  32189 -3.28986973E-03
  32190 -6.46010784E-03
  32191 -3.28986973E-03
  32192 -6.46010784E-03
  32193 -1.79447440E-04
  32194 -2.99079067E-04
  32195 -1.79447440E-04
  32196 -2.99079067E-04
  32197 -2.99079067E-04
  32198 -2.50030100E-02
  32199 -2.99079067E-04
  32200 -2.50030100E-02
  32201 -6.46010784E-03
  32202 -8.37421387E-04
  32203 -6.46010784E-03
  32204 -8.37421387E-04
  32205 -8.37421387E-04
  32206 -7.17789760E-04
  32207 -8.37421387E-04
  32208 -7.17789760E-04
  32209 -2.50030100E-02
  32210 -6.63955528E-03
  32211 -2.50030100E-02
  32212 -6.63955528E-03
  32213 -6.63955528E-03
  32214 -4.18710693E-04
  32215 -6.63955528E-03
  32216 -4.18710693E-04
  32217 -1.79447440E-04
  32218 -2.99079067E-04
  32219 -5.98158133E-05
  32220 -2.39263253E-04
  32221 -2.99079067E-04
  32222 -2.50030100E-02
  32223 -2.39263253E-04
  32224 -5.74231808E-03
  32225 -5.98158133E-05
  32226 -2.39263253E-04
  32227 -5.98158133E-05
  32228 -2.39263253E-04
  32229 -2.39263253E-04
  32230 -5.74231808E-03
  32231 -2.39263253E-04
  32232 -5.74231808E-03
  32233 -2.50030100E-02
  32234 -6.63955528E-03
  32235 -5.74231808E-03
  32236 -1.25613208E-03
  32237 -6.63955528E-03
  32238 -4.18710693E-04
  32239 -1.25613208E-03
  32240 -3.58894880E-04
  32241 -5.74231808E-03
  32242 -1.25613208E-03
  32243 -5.74231808E-03
  32244 -1.25613208E-03
  32245 -1.25613208E-03
  32246 -3.58894880E-04
  32247 -1.25613208E-03
  32248 -3.58894880E-04
  32249 -7.17789760E-04
  32250 -9.57053013E-04
  32251 -7.17789760E-04
  32252 -9.57053013E-04
  32253 -9.57053013E-04
  32254 -0.00000000E+00
  32255 -9.57053013E-04
  32256 -0.00000000E+00
  32257 -4.18710693E-04
  32258 -5.38342320E-04
  32259 -4.18710693E-04
  32260 -5.38342320E-04
  32261 -5.38342320E-04
  32262 -0.00000000E+00
  32263 -5.38342320E-04
  32264 -0.00000000E+00
  32265 -0.00000000E+00
  32266 -0.00000000E+00
  32267 -0.00000000E+00
  32268 -0.00000000E+00
  32269 -0.00000000E+00
  32270 -0.00000000E+00
  32271 -0.00000000E+00
  32272 -0.00000000E+00
  32273 -0.00000000E+00
  32274 -0.00000000E+00
  32275 -0.00000000E+00
  32276 -0.00000000E+00
  32277 -0.00000000E+00
  32278 -0.00000000E+00
  32279 -0.00000000E+00
  32280 -0.00000000E+00
  32281 -4.18710693E-04
  32282 -5.38342320E-04
  32283 -3.58894880E-04
  32284 -6.57973947E-04
  32285 -5.38342320E-04
  32286 -0.00000000E+00
  32287 -6.57973947E-04
  32288 -2.99079067E-04
  32289 -3.58894880E-04
  32290 -6.57973947E-04
  32291 -3.58894880E-04
  32292 -6.57973947E-04
  32293 -6.57973947E-04
  32294 -2.99079067E-04
  32295 -6.57973947E-04
  32296 -2.99079067E-04
  32297 -0.00000000E+00
  32298 -0.00000000E+00
  32299 -2.99079067E-04
  32300 -0.00000000E+00
  32301 -0.00000000E+00
  32302 -0.00000000E+00
  32303 -0.00000000E+00
  32304 -0.00000000E+00
  32305 -2.99079067E-04
  32306 -0.00000000E+00
  32307 -2.99079067E-04
  32308 -0.00000000E+00
  32309 -0.00000000E+00
  32310 -0.00000000E+00
  32311 -0.00000000E+00
  32312 -0.00000000E+00
  32313 -0.00000000E+00
  32314 -0.00000000E+00
  32315 -0.00000000E+00
  32316 -0.00000000E+00
  32317 -0.00000000E+00
  32318 -0.00000000E+00
  32319 -0.00000000E+00
  32320 -0.00000000E+00
  32321 -0.00000000E+00
  32322 -0.00000000E+00
  32323 -0.00000000E+00
  32324 -0.00000000E+00
  32325 -0.00000000E+00
  32326 -0.00000000E+00
  32327 -0.00000000E+00
  32328 -0.00000000E+00
  32329 -8.37421387E-04
  32330 -8.37421387E-04
  32331 -8.37421387E-04
  32332 -8.37421387E-04
  32333 -5.98158133E-04
  32334 -5.98158133E-04
  32335 -5.98158133E-04
  32336 -5.98158133E-04
  32337 -0.00000000E+00
  32338 -0.00000000E+00
  32339 -0.00000000E+00
  32340 -0.00000000E+00
  32341 -3.58894880E-04
  32342 -3.58894880E-04
  32343 -3.58894880E-04
  32344 -3.58894880E-04
  32345 -0.00000000E+00
  32346 -0.00000000E+00
  32347 -0.00000000E+00
  32348 -0.00000000E+00
  32349 -0.00000000E+00
  32350 -0.00000000E+00
  32351 -0.00000000E+00
  32352 -0.00000000E+00
  32353 -0.00000000E+00
  32354 -0.00000000E+00
  32355 -0.00000000E+00
  32356 -0.00000000E+00
  32357 -0.00000000E+00
  32358 -0.00000000E+00
  32359 -0.00000000E+00
  32360 -0.00000000E+00
  32361 -0.00000000E+00
  32362 -0.00000000E+00
  32363 -0.00000000E+00
  32364 -0.00000000E+00
  32365 -3.58894880E-04
  32366 -3.58894880E-04
  32367 -0.00000000E+00
  32368 -0.00000000E+00
  32369 -0.00000000E+00
  32370 -0.00000000E+00
  32371 -0.00000000E+00
  32372 -0.00000000E+00
  32373 -0.00000000E+00
  32374 -0.00000000E+00
  32375 -0.00000000E+00
  32376 -0.00000000E+00
  32377 -0.00000000E+00
  32379 -5.98158133E-04
  32382 -2.39263253E-04
  32384 -2.39263253E-04
  32634 -1.19631627E-04
  32652 -1.19631627E-04
  32653 -5.98158133E-04
  32654 -5.98158133E-04
  32655 -1.19631627E-04
  32656 -1.19631627E-04
  32657 -0.00000000E+00
  32658 -0.00000000E+00
  32659 -5.98158133E-04
  32660 -5.98158133E-04
  32661 -5.98158133E-04
  32662 -5.98158133E-04
  32663 -0.00000000E+00
  32664 -0.00000000E+00
  32665 -0.00000000E+00
  32666 -0.00000000E+00
  32676 -0.00000000E+00
  32677 -0.00000000E+00
  32678 -0.00000000E+00
  32679 -0.00000000E+00
  32680 -0.00000000E+00
  32681 -0.00000000E+00
  32682 -0.00000000E+00
  32685 -1.19631627E-04
  32691 -1.79447440E-04
  32692 -1.79447440E-04
  32693 -1.79447440E-04
  32694 -1.79447440E-04
  32695 -1.79447440E-04
  32697 -1.79447440E-04
  32698 -1.79447440E-04
  32699 -0.00000000E+00
  32700 -0.00000000E+00
  32701 -0.00000000E+00
  32702 -0.00000000E+00
  32703 -0.00000000E+00
  32704 -0.00000000E+00
  32705 -0.00000000E+00
  32706 -0.00000000E+00
  32707 -0.00000000E+00
  32708 -0.00000000E+00
  32709 -0.00000000E+00
  32710 -0.00000000E+00
  32711 -0.00000000E+00
  32712 -0.00000000E+00
  32713 -0.00000000E+00
  32714 -0.00000000E+00
  32715 -1.79447440E-04
  32716 -1.79447440E-04
  32717 -1.79447440E-04
  32718 -1.79447440E-04
  32719 -1.79447440E-04
  32720 -1.79447440E-04
  32721 -1.79447440E-04
  32722 -1.79447440E-04
  32723 -1.79447440E-04
  32724 -1.79447440E-04
  32725 -1.79447440E-04
  32726 -1.79447440E-04
  32727 -1.79447440E-04
  32728 -1.79447440E-04
  32729 -1.79447440E-04
  32730 -1.79447440E-04
  32763 -0.00000000E+00
  32765 -0.00000000E+00
  32766 -0.00000000E+00
  32771 -0.00000000E+00
  32772 -0.00000000E+00
  32816 -5.98158133E-05
  32817 -5.98158133E-05
  32818 -5.98158133E-05
  32820 -0.00000000E+00
  32821 -5.98158133E-05
  32822 -0.00000000E+00
  32823 -0.00000000E+00
  32824 -5.98158133E-05
  32825 -0.00000000E+00
  32826 -5.98158133E-05
  32832 -5.98158133E-05
  32833 -0.00000000E+00
  32834 -0.00000000E+00
  32836 -0.00000000E+00
  32837 -5.98158133E-05
  32838 -0.00000000E+00
  32839 -0.00000000E+00
  32840 -0.00000000E+00
  32841 -0.00000000E+00
  32842 -0.00000000E+00
  32843 -5.98158133E-05
  32844 -0.00000000E+00
  32845 -0.00000000E+00
  32846 -0.00000000E+00
  32847 -0.00000000E+00
  32848 -5.98158133E-05
  32849 -0.00000000E+00
  32850 -5.98158133E-05
  32851 -0.00000000E+00
  32852 -0.00000000E+00
  32853 -0.00000000E+00
  32854 -0.00000000E+00
  32855 -0.00000000E+00
  32856 -5.98158133E-05
  32857 -0.00000000E+00
  32858 -5.98158133E-05
  32859 -5.98158133E-05
  32860 -0.00000000E+00
  32861 -5.98158133E-05
  32862 -0.00000000E+00
  32863 -0.00000000E+00
  32864 -0.00000000E+00
  32865 -0.00000000E+00
  32866 -0.00000000E+00
  32867 -5.98158133E-05
  32868 -1.19631627E-04
  32869 -5.98158133E-05
  32870 -1.19631627E-04
  32871 -1.19631627E-04
  32872 -4.18710693E-04
  32873 -1.19631627E-04
  32874 -4.18710693E-04
  32875 -0.00000000E+00
  32876 -0.00000000E+00
  32877 -0.00000000E+00
  32878 -0.00000000E+00
  32879 -4.78526507E-04
  32880 -4.78526507E-04
  32881 -4.78526507E-04
  32882 -4.78526507E-04
  32883 -4.18710693E-04
  32884 -4.18710693E-04
  32885 -4.18710693E-04
  32886 -4.18710693E-04
  32887 -2.39263253E-04
  32888 -2.39263253E-04
  32889 -2.39263253E-04
  32890 -2.39263253E-04
  32891 -5.98158133E-05
  32892 -1.19631627E-04
  32893 -5.98158133E-05
  32894 -5.98158133E-05
  32895 -1.19631627E-04
  32896 -4.18710693E-04
  32897 -5.98158133E-05
  32898 -4.18710693E-04
  32899 -5.98158133E-05
  32900 -5.98158133E-05
  32901 -5.98158133E-05
  32902 -5.98158133E-05
  32903 -5.98158133E-05
  32904 -4.18710693E-04
  32905 -5.98158133E-05
  32906 -4.18710693E-04
  32907 -4.18710693E-04
  32908 -4.18710693E-04
  32909 -4.18710693E-04
  32910 -4.18710693E-04
  32911 -2.39263253E-04
  32912 -2.39263253E-04
  32913 -5.98158133E-05
  32914 -5.98158133E-05
  32915 -4.18710693E-04
  32916 -4.18710693E-04
  32917 -4.18710693E-04
  32918 -4.18710693E-04
  32919 -5.98158133E-05
  32920 -5.98158133E-05
  32921 -5.98158133E-05
  32922 -5.98158133E-05
  32923 -5.98158133E-05
  32924 -5.98158133E-05
  32925 -5.98158133E-05
  32926 -5.98158133E-05
  32927 -5.98158133E-05
  32928 -5.98158133E-05
  32929 -5.98158133E-05
  32930 -5.98158133E-05
  32931 -0.00000000E+00
  32932 -0.00000000E+00
  32933 -0.00000000E+00
  32934 -0.00000000E+00
  32935 -0.00000000E+00
  32936 -0.00000000E+00
  32937 -0.00000000E+00
  32938 -0.00000000E+00
  32939 -0.00000000E+00
  32940 -0.00000000E+00
  32941 -0.00000000E+00
  32942 -0.00000000E+00
  32943 -0.00000000E+00
  32944 -0.00000000E+00
  32945 -0.00000000E+00
  32946 -0.00000000E+00
  32947 -0.00000000E+00
  32948 -0.00000000E+00
  32949 -0.00000000E+00
  32950 -0.00000000E+00
  32951 -0.00000000E+00
  32952 -0.00000000E+00
  32953 -0.00000000E+00
  32954 -0.00000000E+00
  32955 -0.00000000E+00
  32956 -0.00000000E+00
  32957 -5.98158133E-05
  32958 -5.98158133E-05
  32959 -0.00000000E+00
  32960 -0.00000000E+00
  32961 -5.98158133E-05
  32962 -5.98158133E-05
  32963 -5.98158133E-05
  32964 -5.98158133E-05
  32965 -5.98158133E-05
  32966 -5.98158133E-05
  32967 -5.98158133E-05
  32968 -5.98158133E-05
  32969 -5.98158133E-05
  32970 -5.98158133E-05
  32971 -0.00000000E+00
  32972 -0.00000000E+00
  32973 -0.00000000E+00
  32974 -0.00000000E+00
  32975 -0.00000000E+00
  32976 -0.00000000E+00
  32977 -0.00000000E+00
  32978 -0.00000000E+00
  32979 -0.00000000E+00
  32980 -0.00000000E+00
  32981 -0.00000000E+00
  32982 -0.00000000E+00
  32983 -0.00000000E+00
  32984 -0.00000000E+00
  32985 -0.00000000E+00
  32986 -0.00000000E+00
  32987 -0.00000000E+00
  32988 -0.00000000E+00
  32989 -0.00000000E+00
  32990 -0.00000000E+00
  32991 -0.00000000E+00
  32992 -0.00000000E+00
  32993 -0.00000000E+00
  32994 -0.00000000E+00
  32995 -5.98158133E-05
  32996 -5.98158133E-05
  32997 -5.98158133E-05
  32998 -5.98158133E-05
  32999 -0.00000000E+00
  33000 -0.00000000E+00
  33001 -0.00000000E+00
  33002 -0.00000000E+00
  33003 -0.00000000E+00
  33004 -0.00000000E+00
  33005 -0.00000000E+00
  33006 -0.00000000E+00
  33007 -1.19631627E-04
  33008 -1.19631627E-04
  33009 -1.19631627E-04
  33010 -1.19631627E-04
  33011 -0.00000000E+00
  33012 -0.00000000E+00
  33013 -0.00000000E+00
  33014 -0.00000000E+00
  33015 -0.00000000E+00
  33016 -0.00000000E+00
  33017 -0.00000000E+00
  33018 -0.00000000E+00
  33019 -5.98158133E-05
  33020 -5.98158133E-05
  33021 -0.00000000E+00
  33022 -0.00000000E+00
  33023 -0.00000000E+00
  33024 -0.00000000E+00
  33025 -2.39263253E-04
  33026 -2.39263253E-04
  33027 -0.00000000E+00
  33028 -0.00000000E+00
  33029 -0.00000000E+00
  33030 -0.00000000E+00
  33031 -2.39263253E-04
  33032 -2.39263253E-04
  33033 -2.39263253E-04
  33034 -2.39263253E-04
  33035 -0.00000000E+00
  33036 -0.00000000E+00
  33037 -0.00000000E+00
  33038 -0.00000000E+00
  33039 -0.00000000E+00
  33040 -0.00000000E+00
  33041 -1.19631627E-04
  33042 -1.19631627E-04
  33043 -0.00000000E+00
  33044 -0.00000000E+00
  33045 -0.00000000E+00
  33046 -0.00000000E+00
  33047 -1.19631627E-04
  33048 -1.19631627E-04
  33049 -1.19631627E-04
  33050 -1.19631627E-04
  33051 -1.79447440E-04
  33052 -9.57053013E-04
  33053 -4.78526507E-04
  33054 -8.37421387E-04
  33055 -2.57207997E-03
  33056 -5.98158133E-05
  33057 -8.97237200E-04
  33058 -0.00000000E+00
  33059 -4.78526507E-04
  33060 -8.37421387E-04
  33061 -5.38342320E-04
  33062 -2.99079067E-04
  33063 -8.97237200E-04
  33064 -0.00000000E+00
  33065 -5.38342320E-04
  33066 -2.99079067E-04
  33067 -5.98158133E-05
  33068 -0.00000000E+00
  33069 -5.98158133E-05
  33070 -0.00000000E+00
  33071 -0.00000000E+00
  33072 -0.00000000E+00
  33073 -0.00000000E+00
  33074 -0.00000000E+00
  33075 -0.00000000E+00
  33076 -4.18710693E-04
  33077 -0.00000000E+00
  33078 -4.18710693E-04
  33079 -4.18710693E-04
  33080 -0.00000000E+00
  33081 -4.18710693E-04
  33082 -0.00000000E+00
  33083 -0.00000000E+00
  33084 -0.00000000E+00
  33085 -0.00000000E+00
  33086 -0.00000000E+00
  33087 -0.00000000E+00
  33088 -0.00000000E+00
  33089 -0.00000000E+00
  33090 -0.00000000E+00
  33091 -0.00000000E+00
  33092 -5.98158133E-05
  33093 -0.00000000E+00
  33094 -5.98158133E-05
  33095 -5.98158133E-05
  33096 -0.00000000E+00
  33097 -5.98158133E-05
  33098 -0.00000000E+00
  33099 -0.00000000E+00
  33100 -4.18710693E-04
  33101 -2.99079067E-04
  33102 -0.00000000E+00
  33103 -4.18710693E-04
  33104 -0.00000000E+00
  33105 -0.00000000E+00