# File generated by Flopy version 3.9.1 on 01/21/2026 at 06:18:20.
BEGIN options
  BUDGET  FILEOUT  quadtree_caseB.cbc
  HEAD  FILEOUT  quadtree_caseB.hds
END options

BEGIN period  1
  SAVE  head  last
  SAVE  budget  last
  PRINT  budget  last
END period  1

