# File generated by Flopy version 3.9.1 on 02/10/2026 at 21:04:49.
BEGIN options
  SAVE_FLOWS
END options

BEGIN dimensions
  MAXBOUND  17204
END dimensions

BEGIN period  1
  1 1 0.00000000E+00
  1 2 0.00000000E+00
  1 3 0.00000000E+00
  1 4 0.00000000E+00
  1 5 0.00000000E+00
  1 6 0.00000000E+00
  1 7 0.00000000E+00
  1 8 0.00000000E+00
  1 9 0.00000000E+00
  1 10 0.00000000E+00
  1 11 0.00000000E+00
  1 12 0.00000000E+00
  1 13 0.00000000E+00
  1 14 0.00000000E+00
  1 15 0.00000000E+00
  1 16 0.00000000E+00
  1 17 0.00000000E+00
  1 18 0.00000000E+00
  1 19 0.00000000E+00
  1 20 0.00000000E+00
  1 21 0.00000000E+00
  1 22 0.00000000E+00
  1 23 0.00000000E+00
  1 24 0.00000000E+00
  1 25 0.00000000E+00
  1 26 0.00000000E+00
  1 27 0.00000000E+00
  1 28 0.00000000E+00
  1 29 0.00000000E+00
  1 30 0.00000000E+00
  1 31 0.00000000E+00
  1 32 0.00000000E+00
  1 33 0.00000000E+00
  1 34 0.00000000E+00
  1 260 0.00000000E+00
  1 261 0.00000000E+00
  1 262 0.00000000E+00
  1 263 0.00000000E+00
  1 264 0.00000000E+00
  1 265 0.00000000E+00
  1 266 0.00000000E+00
  1 267 0.00000000E+00
  1 268 0.00000000E+00
  1 269 0.00000000E+00
  1 270 0.00000000E+00
  1 271 0.00000000E+00
  1 272 0.00000000E+00
  1 273 0.00000000E+00
  1 274 0.00000000E+00
  1 275 0.00000000E+00
  1 276 0.00000000E+00
  1 277 0.00000000E+00
  1 278 0.00000000E+00
  1 279 0.00000000E+00
  1 280 0.00000000E+00
  1 281 0.00000000E+00
  1 282 0.00000000E+00
  1 283 0.00000000E+00
  1 284 0.00000000E+00
  1 285 0.00000000E+00
  1 286 0.00000000E+00
  1 287 0.00000000E+00
  1 288 0.00000000E+00
  1 289 0.00000000E+00
  1 290 0.00000000E+00
  1 291 0.00000000E+00
  1 292 0.00000000E+00
  1 293 0.00000000E+00
  1 294 0.00000000E+00
  1 295 0.00000000E+00
  1 296 0.00000000E+00
  1 297 0.00000000E+00
  1 298 0.00000000E+00
  1 299 0.00000000E+00
  1 300 0.00000000E+00
  1 301 0.00000000E+00
  1 302 0.00000000E+00
  1 303 0.00000000E+00
  1 304 0.00000000E+00
  1 305 0.00000000E+00
  1 306 0.00000000E+00
  1 307 0.00000000E+00
  1 308 0.00000000E+00
  1 309 0.00000000E+00
  1 310 0.00000000E+00
  1 311 0.00000000E+00
  1 312 0.00000000E+00
  1 313 0.00000000E+00
  1 314 0.00000000E+00
  1 315 0.00000000E+00
  1 316 0.00000000E+00
  1 317 0.00000000E+00
  1 318 0.00000000E+00
  1 319 0.00000000E+00
  1 320 0.00000000E+00
  1 321 0.00000000E+00
  1 322 0.00000000E+00
  1 323 0.00000000E+00
  1 324 0.00000000E+00
  1 325 0.00000000E+00
  1 326 0.00000000E+00
  1 327 0.00000000E+00
  1 328 0.00000000E+00
  1 329 0.00000000E+00
  1 330 0.00000000E+00
  1 331 0.00000000E+00
  1 332 0.00000000E+00
  1 333 0.00000000E+00
  1 334 0.00000000E+00
  1 335 0.00000000E+00
  1 336 0.00000000E+00
  1 337 0.00000000E+00
  1 338 0.00000000E+00
  1 339 0.00000000E+00
  1 340 0.00000000E+00
  1 341 0.00000000E+00
  1 342 0.00000000E+00
  1 343 0.00000000E+00
  1 344 0.00000000E+00
  1 345 0.00000000E+00
  1 346 0.00000000E+00
  1 347 0.00000000E+00
  1 348 0.00000000E+00
  1 349 0.00000000E+00
  1 350 0.00000000E+00
  1 351 0.00000000E+00
  1 352 0.00000000E+00
  1 353 0.00000000E+00
  1 354 0.00000000E+00
  1 355 0.00000000E+00
  1 356 0.00000000E+00
  1 357 0.00000000E+00
  1 358 0.00000000E+00
  1 359 0.00000000E+00
  1 360 0.00000000E+00
  1 361 0.00000000E+00
  1 362 0.00000000E+00
  1 363 0.00000000E+00
  1 364 0.00000000E+00
  1 365 0.00000000E+00
  1 366 0.00000000E+00
  1 367 0.00000000E+00
  1 368 0.00000000E+00
  1 369 0.00000000E+00
  1 370 0.00000000E+00
  1 371 0.00000000E+00
  1 372 0.00000000E+00
  1 373 0.00000000E+00
  1 374 0.00000000E+00
  1 375 0.00000000E+00
  1 376 0.00000000E+00
  1 377 0.00000000E+00
  1 378 0.00000000E+00
  1 379 0.00000000E+00
  1 380 0.00000000E+00
  1 381 0.00000000E+00
  1 382 0.00000000E+00
  1 383 0.00000000E+00
  1 384 0.00000000E+00
  1 385 0.00000000E+00
  1 386 0.00000000E+00
  1 387 0.00000000E+00
  1 388 0.00000000E+00
  1 389 0.00000000E+00
  1 390 0.00000000E+00
  1 391 0.00000000E+00
  1 392 0.00000000E+00
  1 393 0.00000000E+00
  1 394 0.00000000E+00
  1 395 0.00000000E+00
  1 396 0.00000000E+00
  1 397 0.00000000E+00
  1 398 0.00000000E+00
  1 399 0.00000000E+00
  1 400 0.00000000E+00
  1 401 0.00000000E+00
  1 402 0.00000000E+00
  1 403 0.00000000E+00
  1 404 0.00000000E+00
  1 405 0.00000000E+00
  1 406 0.00000000E+00
  1 407 0.00000000E+00
  1 408 0.00000000E+00
  1 409 0.00000000E+00
  1 410 0.00000000E+00
  1 411 0.00000000E+00
  1 412 0.00000000E+00
  1 413 0.00000000E+00
  1 414 0.00000000E+00
  1 415 0.00000000E+00
  1 416 0.00000000E+00
  1 417 0.00000000E+00
  1 418 0.00000000E+00
  1 419 0.00000000E+00
  1 420 0.00000000E+00
  1 421 0.00000000E+00
  1 422 0.00000000E+00
  1 423 0.00000000E+00
  1 424 0.00000000E+00
  1 425 0.00000000E+00
  1 426 0.00000000E+00
  1 427 0.00000000E+00
  1 428 0.00000000E+00
  1 429 0.00000000E+00
  1 430 0.00000000E+00
  1 431 0.00000000E+00
  1 432 0.00000000E+00
  1 433 0.00000000E+00
  1 434 0.00000000E+00
  1 435 0.00000000E+00
  1 436 0.00000000E+00
  1 437 0.00000000E+00
  1 438 0.00000000E+00
  1 439 0.00000000E+00
  1 440 0.00000000E+00
  1 441 0.00000000E+00
  1 442 0.00000000E+00
  1 443 0.00000000E+00
  1 444 0.00000000E+00
  1 445 0.00000000E+00
  1 446 0.00000000E+00
  1 447 0.00000000E+00
  1 448 0.00000000E+00
  1 449 0.00000000E+00
  1 450 0.00000000E+00
  1 451 0.00000000E+00
  1 452 0.00000000E+00
  1 453 0.00000000E+00
  1 454 0.00000000E+00
  1 455 0.00000000E+00
  1 456 0.00000000E+00
  1 457 0.00000000E+00
  1 458 0.00000000E+00
  1 459 0.00000000E+00
  1 460 0.00000000E+00
  1 461 0.00000000E+00
  1 462 0.00000000E+00
  1 463 0.00000000E+00
  1 464 0.00000000E+00
  1 465 0.00000000E+00
  1 466 0.00000000E+00
  1 467 0.00000000E+00
  1 468 0.00000000E+00
  1 469 0.00000000E+00
  1 470 0.00000000E+00
  1 471 0.00000000E+00
  1 472 0.00000000E+00
  1 473 0.00000000E+00
  1 474 0.00000000E+00
  1 475 0.00000000E+00
  1 476 0.00000000E+00
  1 477 0.00000000E+00
  1 478 0.00000000E+00
  1 479 0.00000000E+00
  1 480 0.00000000E+00
  1 481 0.00000000E+00
  1 482 0.00000000E+00
  1 483 0.00000000E+00
  1 484 0.00000000E+00
  1 485 0.00000000E+00
  1 486 0.00000000E+00
  1 487 0.00000000E+00
  1 488 0.00000000E+00
  1 489 0.00000000E+00
  1 490 0.00000000E+00
  1 491 0.00000000E+00
  1 492 0.00000000E+00
  1 493 0.00000000E+00
  1 494 0.00000000E+00
  1 495 0.00000000E+00
  1 496 0.00000000E+00
  1 497 0.00000000E+00
  1 498 0.00000000E+00
  1 499 0.00000000E+00
  1 500 0.00000000E+00
  1 501 0.00000000E+00
  1 502 0.00000000E+00
  1 503 0.00000000E+00
  1 504 0.00000000E+00
  1 505 0.00000000E+00
  1 506 0.00000000E+00
  1 507 0.00000000E+00
  1 508 0.00000000E+00
  1 509 0.00000000E+00
  1 510 0.00000000E+00
  1 511 0.00000000E+00
  1 512 0.00000000E+00
  1 513 0.00000000E+00
  1 514 0.00000000E+00
  1 515 0.00000000E+00
  1 516 0.00000000E+00
  1 517 0.00000000E+00
  1 518 0.00000000E+00
  1 519 0.00000000E+00
  1 520 0.00000000E+00
  1 521 0.00000000E+00
  1 522 0.00000000E+00
  1 523 0.00000000E+00
  1 524 0.00000000E+00
  1 525 0.00000000E+00
  1 526 0.00000000E+00
  1 527 0.00000000E+00
  1 528 0.00000000E+00
  1 529 0.00000000E+00
  1 530 0.00000000E+00
  1 531 0.00000000E+00
  1 532 0.00000000E+00
  1 533 0.00000000E+00
  1 534 0.00000000E+00
  1 535 0.00000000E+00
  1 536 0.00000000E+00
  1 537 0.00000000E+00
  1 538 0.00000000E+00
  1 539 0.00000000E+00
  1 540 0.00000000E+00
  1 541 0.00000000E+00
  1 542 0.00000000E+00
  1 543 0.00000000E+00
  1 544 0.00000000E+00
  1 545 0.00000000E+00
  1 546 0.00000000E+00
  1 547 0.00000000E+00
  1 548 0.00000000E+00
  1 549 0.00000000E+00
  1 550 0.00000000E+00
  1 551 0.00000000E+00
  1 552 0.00000000E+00
  1 553 0.00000000E+00
  1 554 0.00000000E+00
  1 555 0.00000000E+00
  1 556 0.00000000E+00
  1 557 0.00000000E+00
  1 558 0.00000000E+00
  1 559 0.00000000E+00
  1 560 0.00000000E+00
  1 561 0.00000000E+00
  1 562 0.00000000E+00
  1 563 0.00000000E+00
  1 564 0.00000000E+00
  1 565 0.00000000E+00
  1 566 0.00000000E+00
  1 567 0.00000000E+00
  1 568 0.00000000E+00
  1 569 0.00000000E+00
  1 570 0.00000000E+00
  1 571 0.00000000E+00
  1 572 0.00000000E+00
  1 573 0.00000000E+00
  1 574 0.00000000E+00
  1 575 0.00000000E+00
  1 576 0.00000000E+00
  1 577 0.00000000E+00
  1 578 0.00000000E+00
  1 579 0.00000000E+00
  1 580 0.00000000E+00
  1 581 0.00000000E+00
  1 582 0.00000000E+00
  1 583 0.00000000E+00
  1 584 0.00000000E+00
  1 585 0.00000000E+00
  1 586 0.00000000E+00
  1 587 0.00000000E+00
  1 588 0.00000000E+00
  1 589 0.00000000E+00
  1 590 0.00000000E+00
  1 591 0.00000000E+00
  1 592 0.00000000E+00
  1 593 0.00000000E+00
  1 594 0.00000000E+00
  1 595 0.00000000E+00
  1 596 0.00000000E+00
  1 597 0.00000000E+00
  1 598 0.00000000E+00
  1 599 0.00000000E+00
  1 600 0.00000000E+00
  1 601 0.00000000E+00
  1 602 0.00000000E+00
  1 603 0.00000000E+00
  1 604 0.00000000E+00
  1 605 0.00000000E+00
  1 606 0.00000000E+00
  1 607 0.00000000E+00
  1 608 0.00000000E+00
  1 609 0.00000000E+00
  1 610 0.00000000E+00
  1 611 0.00000000E+00
  1 612 0.00000000E+00
  1 613 0.00000000E+00
  1 614 0.00000000E+00
  1 615 0.00000000E+00
  1 616 0.00000000E+00
  1 617 0.00000000E+00
  1 618 0.00000000E+00
  1 619 0.00000000E+00
  1 620 0.00000000E+00
  1 621 0.00000000E+00
  1 622 0.00000000E+00
  1 623 0.00000000E+00
  1 624 0.00000000E+00
  1 625 0.00000000E+00
  1 626 0.00000000E+00
  1 627 0.00000000E+00
  1 628 0.00000000E+00
  1 629 0.00000000E+00
  1 630 0.00000000E+00
  1 631 0.00000000E+00
  1 632 0.00000000E+00
  1 633 0.00000000E+00
  1 634 0.00000000E+00
  1 635 0.00000000E+00
  1 636 0.00000000E+00
  1 637 0.00000000E+00
  1 638 0.00000000E+00
  1 639 0.00000000E+00
  1 640 0.00000000E+00
  1 641 0.00000000E+00
  1 642 0.00000000E+00
  1 5653 0.00000000E+00
  1 5654 0.00000000E+00
  1 5655 0.00000000E+00
  1 11473 0.00000000E+00
  1 11474 0.00000000E+00
  1 11475 0.00000000E+00
  1 11476 0.00000000E+00
  1 11477 0.00000000E+00
  1 11478 0.00000000E+00
  1 11479 0.00000000E+00
  1 11480 0.00000000E+00
  1 11517 0.00000000E+00
  1 11518 0.00000000E+00
  1 12428 0.00000000E+00
  1 12429 0.00000000E+00
  1 12430 0.00000000E+00
  1 12433 0.00000000E+00
  1 12434 0.00000000E+00
  1 12435 0.00000000E+00
  1 12436 0.00000000E+00
  1 12437 0.00000000E+00
  1 12438 0.00000000E+00
  1 12439 0.00000000E+00
  1 12440 0.00000000E+00
  1 12441 0.00000000E+00
  1 12442 0.00000000E+00
  1 12443 0.00000000E+00
  1 12444 0.00000000E+00
  1 12500 0.00000000E+00
  1 12501 0.00000000E+00
  1 12502 0.00000000E+00
  1 12503 0.00000000E+00
  1 12504 0.00000000E+00
  1 12505 0.00000000E+00
  1 12506 0.00000000E+00
  1 12507 0.00000000E+00
  1 12508 0.00000000E+00
  1 12509 0.00000000E+00
  1 12510 0.00000000E+00
  1 12511 0.00000000E+00
  1 12512 0.00000000E+00
  1 12513 0.00000000E+00
  1 12514 0.00000000E+00
  1 12515 0.00000000E+00
  1 12516 0.00000000E+00
  1 12517 0.00000000E+00
  1 12518 0.00000000E+00
  1 12519 0.00000000E+00
  1 12520 0.00000000E+00
  1 12521 0.00000000E+00
  1 12522 0.00000000E+00
  1 12523 0.00000000E+00
  1 12524 0.00000000E+00
  1 12525 0.00000000E+00
  1 12526 0.00000000E+00
  1 12527 0.00000000E+00
  1 12528 0.00000000E+00
  1 12529 0.00000000E+00
  1 12530 0.00000000E+00
  1 12531 0.00000000E+00
  1 12532 0.00000000E+00
  1 12533 0.00000000E+00
  1 12534 0.00000000E+00
  1 12535 0.00000000E+00
  1 12536 0.00000000E+00
  1 12537 0.00000000E+00
  1 12538 0.00000000E+00
  1 12539 0.00000000E+00
  1 12540 0.00000000E+00
  1 12541 0.00000000E+00
  1 12542 0.00000000E+00
  1 12543 0.00000000E+00
  1 12544 0.00000000E+00
  1 12545 0.00000000E+00
  1 12546 0.00000000E+00
  1 12547 0.00000000E+00
  1 12548 0.00000000E+00
  1 12549 0.00000000E+00
  1 12550 0.00000000E+00
  1 12551 0.00000000E+00
  1 12552 0.00000000E+00
  1 12553 0.00000000E+00
  1 12554 0.00000000E+00
  1 12555 0.00000000E+00
  1 12556 0.00000000E+00
  1 12557 0.00000000E+00
  1 12558 0.00000000E+00
  1 12559 0.00000000E+00
  1 12560 0.00000000E+00
  1 12561 0.00000000E+00
  1 12562 0.00000000E+00
  1 12563 0.00000000E+00
  1 12564 0.00000000E+00
  1 12565 0.00000000E+00
  1 12566 0.00000000E+00
  1 12567 0.00000000E+00
  1 12568 0.00000000E+00
  1 12569 0.00000000E+00
  1 12570 0.00000000E+00
  1 12571 0.00000000E+00
  1 12572 0.00000000E+00
  1 12573 0.00000000E+00
  1 12574 0.00000000E+00
  1 12578 0.00000000E+00
  1 12579 0.00000000E+00
  1 12580 0.00000000E+00
  1 12582 0.00000000E+00
  1 12583 0.00000000E+00
  1 12585 0.00000000E+00
  1 12588 0.00000000E+00
  1 12596 0.00000000E+00
  1 12600 0.00000000E+00
  1 12602 0.00000000E+00
  1 12603 0.00000000E+00
  1 12604 0.00000000E+00
  1 12609 0.00000000E+00
  1 12612 0.00000000E+00
  1 12613 0.00000000E+00
  1 12616 0.00000000E+00
  1 12618 0.00000000E+00
  1 12622 0.00000000E+00
  1 12623 0.00000000E+00
  1 12624 0.00000000E+00
  1 12749 0.00000000E+00
  1 12750 0.00000000E+00
  1 12751 0.00000000E+00
  1 12812 0.00000000E+00
  1 12813 0.00000000E+00
  1 12814 0.00000000E+00
  1 12815 0.00000000E+00
  1 12816 0.00000000E+00
  1 12817 0.00000000E+00
  1 12818 0.00000000E+00
  1 12819 0.00000000E+00
  1 12822 0.00000000E+00
  1 12823 0.00000000E+00
  1 12824 0.00000000E+00
  1 12825 0.00000000E+00
  1 12826 0.00000000E+00
  1 12827 0.00000000E+00
  1 12828 0.00000000E+00
  1 12829 0.00000000E+00
  1 12830 0.00000000E+00
  1 12885 0.00000000E+00
  1 12886 0.00000000E+00
  1 12887 0.00000000E+00
  1 12888 0.00000000E+00
  1 12889 0.00000000E+00
  1 12890 0.00000000E+00
  1 12891 0.00000000E+00
  1 12892 0.00000000E+00
  1 12893 0.00000000E+00
  1 12894 0.00000000E+00
  1 12895 0.00000000E+00
  1 12896 0.00000000E+00
  1 12897 0.00000000E+00
  1 12898 0.00000000E+00
  1 12899 0.00000000E+00
  1 12900 0.00000000E+00
  1 12901 0.00000000E+00
  1 12902 0.00000000E+00
  1 12903 0.00000000E+00
  1 12904 0.00000000E+00
  1 12905 0.00000000E+00
  1 12906 0.00000000E+00
  1 12907 0.00000000E+00
  1 12908 0.00000000E+00
  1 12909 0.00000000E+00
  1 12910 0.00000000E+00
  1 12911 0.00000000E+00
  1 12912 0.00000000E+00
  1 12913 0.00000000E+00
  1 12914 0.00000000E+00
  1 12915 0.00000000E+00
  1 12916 0.00000000E+00
  1 12917 0.00000000E+00
  1 12918 0.00000000E+00
  1 12919 0.00000000E+00
  1 12920 0.00000000E+00
  1 12921 0.00000000E+00
  1 12922 0.00000000E+00
  1 12923 0.00000000E+00
  1 12924 0.00000000E+00
  1 12925 0.00000000E+00
  1 12926 0.00000000E+00
  1 12927 0.00000000E+00
  1 12929 0.00000000E+00
  1 12935 0.00000000E+00
  1 12938 0.00000000E+00
  1 12940 0.00000000E+00
  1 12941 0.00000000E+00
  1 12942 0.00000000E+00
  1 12943 0.00000000E+00
  1 12944 0.00000000E+00
  1 12945 0.00000000E+00
  1 12948 0.00000000E+00
  1 12952 0.00000000E+00
  1 12953 0.00000000E+00
  1 12955 0.00000000E+00
  1 12957 0.00000000E+00
  1 12958 0.00000000E+00
  1 12959 0.00000000E+00
  1 12966 0.00000000E+00
  1 12967 0.00000000E+00
  1 12968 0.00000000E+00
  1 12969 0.00000000E+00
  1 12972 0.00000000E+00
  1 12973 0.00000000E+00
  1 12976 0.00000000E+00
  1 12977 0.00000000E+00
  1 12979 0.00000000E+00
  1 12981 0.00000000E+00
  1 12984 0.00000000E+00
  1 12985 0.00000000E+00
  1 12990 0.00000000E+00
  1 13023 0.00000000E+00
  1 13085 0.00000000E+00
  1 13134 0.00000000E+00
  1 13135 0.00000000E+00
  1 13136 0.00000000E+00
  1 13137 0.00000000E+00
  1 13138 0.00000000E+00
  1 13139 0.00000000E+00
  1 13141 0.00000000E+00
  1 13142 0.00000000E+00
  1 13180 0.00000000E+00
  1 13200 0.00000000E+00
  1 13220 0.00000000E+00
  1 13221 0.00000000E+00
  1 13222 0.00000000E+00
  1 13223 0.00000000E+00
  1 13224 0.00000000E+00
  1 13225 0.00000000E+00
  1 13226 0.00000000E+00
  1 13275 0.00000000E+00
  1 13276 0.00000000E+00
  1 13277 0.00000000E+00
  1 13278 0.00000000E+00
  1 13279 0.00000000E+00
  1 13280 0.00000000E+00
  1 13281 0.00000000E+00
  1 13282 0.00000000E+00
  1 13283 0.00000000E+00
  1 13284 0.00000000E+00
  1 13285 0.00000000E+00
  1 13286 0.00000000E+00
  1 13287 0.00000000E+00
  1 13288 0.00000000E+00
  1 13289 0.00000000E+00
  1 13290 0.00000000E+00
  1 13291 0.00000000E+00
  1 13292 0.00000000E+00
  1 13293 0.00000000E+00
  1 13294 0.00000000E+00
  1 13295 0.00000000E+00
  1 13296 0.00000000E+00
  1 13297 0.00000000E+00
  1 13298 0.00000000E+00
  1 13299 0.00000000E+00
  1 13300 0.00000000E+00
  1 13301 0.00000000E+00
  1 13302 0.00000000E+00
  1 13303 0.00000000E+00
  1 13304 0.00000000E+00
  1 13305 0.00000000E+00
  1 13306 0.00000000E+00
  1 13307 0.00000000E+00
  1 13308 0.00000000E+00
  1 13309 0.00000000E+00
  1 13310 0.00000000E+00
  1 13311 0.00000000E+00
  1 13312 0.00000000E+00
  1 13313 0.00000000E+00
  1 13314 0.00000000E+00
  1 13315 0.00000000E+00
  1 13316 0.00000000E+00
  1 13317 0.00000000E+00
  1 13318 0.00000000E+00
  1 13319 0.00000000E+00
  1 13325 0.00000000E+00
  1 13328 0.00000000E+00
  1 13330 0.00000000E+00
  1 13331 0.00000000E+00
  1 13332 0.00000000E+00
  1 13333 0.00000000E+00
  1 13344 0.00000000E+00
  1 13345 0.00000000E+00
  1 13349 0.00000000E+00
  1 13354 0.00000000E+00
  1 13356 0.00000000E+00
  1 13358 0.00000000E+00
  1 13359 0.00000000E+00
  1 13361 0.00000000E+00
  1 13364 0.00000000E+00
  1 13366 0.00000000E+00
  1 13402 0.00000000E+00
  1 13403 0.00000000E+00
  1 13404 0.00000000E+00
  1 13466 0.00000000E+00
  1 13507 0.00000000E+00
  1 13514 0.00000000E+00
  1 13517 0.00000000E+00
  1 13518 0.00000000E+00
  1 13569 0.00000000E+00
  1 13570 0.00000000E+00
  1 13574 0.00000000E+00
  1 13605 0.00000000E+00
  1 13606 0.00000000E+00
  1 13634 0.00000000E+00
  1 13645 0.00000000E+00
  1 13648 0.00000000E+00
  1 13649 0.00000000E+00
  1 13650 0.00000000E+00
  1 13651 0.00000000E+00
  1 13652 0.00000000E+00
  1 13653 0.00000000E+00
  1 13702 0.00000000E+00
  1 13703 0.00000000E+00
  1 13704 0.00000000E+00
  1 13705 0.00000000E+00
  1 13706 0.00000000E+00
  1 13707 0.00000000E+00
  1 13708 0.00000000E+00
  1 13709 0.00000000E+00
  1 13710 0.00000000E+00
  1 13711 0.00000000E+00
  1 13712 0.00000000E+00
  1 13713 0.00000000E+00
  1 13714 0.00000000E+00
  1 13715 0.00000000E+00
  1 13716 0.00000000E+00
  1 13717 0.00000000E+00
  1 13718 0.00000000E+00
  1 13719 0.00000000E+00
  1 13720 0.00000000E+00
  1 13721 0.00000000E+00
  1 13722 0.00000000E+00
  1 13723 0.00000000E+00
  1 13724 0.00000000E+00
  1 13725 0.00000000E+00
  1 13726 0.00000000E+00
  1 13727 0.00000000E+00
  1 13728 0.00000000E+00
  1 13729 0.00000000E+00
  1 13730 0.00000000E+00
  1 13731 0.00000000E+00
  1 13732 0.00000000E+00
  1 13733 0.00000000E+00
  1 13734 0.00000000E+00
  1 13735 0.00000000E+00
  1 13737 0.00000000E+00
  1 13738 0.00000000E+00
  1 13739 0.00000000E+00
  1 13740 0.00000000E+00
  1 13741 0.00000000E+00
  1 13742 0.00000000E+00
  1 13743 0.00000000E+00
  1 13755 0.00000000E+00
  1 13756 0.00000000E+00
  1 13757 0.00000000E+00
  1 13758 0.00000000E+00
  1 13759 0.00000000E+00
  1 13760 0.00000000E+00
  1 13769 0.00000000E+00
  1 13780 0.00000000E+00
  1 13781 0.00000000E+00
  1 13784 0.00000000E+00
  1 13788 0.00000000E+00
  1 13789 0.00000000E+00
  1 13790 0.00000000E+00
  1 13791 0.00000000E+00
  1 13792 0.00000000E+00
  1 13830 0.00000000E+00
  1 13831 0.00000000E+00
  1 13832 0.00000000E+00
  1 13940 0.00000000E+00
  1 13941 0.00000000E+00
  1 13946 0.00000000E+00
  1 13951 0.00000000E+00
  1 13960 0.00000000E+00
  1 13997 0.00000000E+00
  1 14017 0.00000000E+00
  1 14030 0.00000000E+00
  1 14068 0.00000000E+00
  1 14069 0.00000000E+00
  1 14078 0.00000000E+00
  1 14079 0.00000000E+00
  1 14080 0.00000000E+00
  1 14086 0.00000000E+00
  1 14087 0.00000000E+00
  1 14089 0.00000000E+00
  1 14090 0.00000000E+00
  1 14091 0.00000000E+00
  1 14092 0.00000000E+00
  1 14101 0.00000000E+00
  1 14102 0.00000000E+00
  1 14103 0.00000000E+00
  1 14104 0.00000000E+00
  1 14105 0.00000000E+00
  1 14106 0.00000000E+00
  1 14107 0.00000000E+00
  1 14151 0.00000000E+00
  1 14152 0.00000000E+00
  1 14153 0.00000000E+00
  1 14154 0.00000000E+00
  1 14155 0.00000000E+00
  1 14156 0.00000000E+00
  1 14157 0.00000000E+00
  1 14158 0.00000000E+00
  1 14159 0.00000000E+00
  1 14160 0.00000000E+00
  1 14161 0.00000000E+00
  1 14162 0.00000000E+00
  1 14164 0.00000000E+00
  1 14166 0.00000000E+00
  1 14167 0.00000000E+00
  1 14168 0.00000000E+00
  1 14169 0.00000000E+00
  1 14170 0.00000000E+00
  1 14171 0.00000000E+00
  1 14172 0.00000000E+00
  1 14173 0.00000000E+00
  1 14174 0.00000000E+00
  1 14175 0.00000000E+00
  1 14176 0.00000000E+00
  1 14177 0.00000000E+00
  1 14178 0.00000000E+00
  1 14179 0.00000000E+00
  1 14182 0.00000000E+00
  1 14183 0.00000000E+00
  1 14184 0.00000000E+00
  1 14185 0.00000000E+00
  1 14187 0.00000000E+00
  1 14188 0.00000000E+00
  1 14189 0.00000000E+00
  1 14192 0.00000000E+00
  1 14202 0.00000000E+00
  1 14203 0.00000000E+00
  1 14204 0.00000000E+00
  1 14205 0.00000000E+00
  1 14206 0.00000000E+00
  1 14207 0.00000000E+00
  1 14208 0.00000000E+00
  1 14209 0.00000000E+00
  1 14228 0.00000000E+00
  1 14234 0.00000000E+00
  1 14235 0.00000000E+00
  1 14236 0.00000000E+00
  1 14237 0.00000000E+00
  1 14241 0.00000000E+00
  1 14275 0.00000000E+00
  1 14276 0.00000000E+00
  1 14277 0.00000000E+00
  1 14278 0.00000000E+00
  1 14279 0.00000000E+00
  1 14282 0.00000000E+00
  1 14283 0.00000000E+00
  1 14284 0.00000000E+00
  1 14388 0.00000000E+00
  1 14389 0.00000000E+00
  1 14392 0.00000000E+00
  1 14393 0.00000000E+00
  1 14397 0.00000000E+00
  1 14406 0.00000000E+00
  1 14438 0.00000000E+00
  1 14478 0.00000000E+00
  1 14479 0.00000000E+00
  1 14486 0.00000000E+00
  1 14488 0.00000000E+00
  1 14489 0.00000000E+00
  1 14490 0.00000000E+00
  1 14491 0.00000000E+00
  1 14494 0.00000000E+00
  1 14503 0.00000000E+00
  1 14504 0.00000000E+00
  1 14534 0.00000000E+00
  1 14535 0.00000000E+00
  1 14536 0.00000000E+00
  1 14537 0.00000000E+00
  1 14538 0.00000000E+00
  1 14539 0.00000000E+00
  1 14540 0.00000000E+00
  1 14547 0.00000000E+00
  1 14548 0.00000000E+00
  1 14549 0.00000000E+00
  1 14550 0.00000000E+00
  1 14551 0.00000000E+00
  1 14552 0.00000000E+00
  1 14553 0.00000000E+00
  1 14554 0.00000000E+00
  1 14555 0.00000000E+00
  1 14556 0.00000000E+00
  1 14557 0.00000000E+00
  1 14558 0.00000000E+00
  1 14559 0.00000000E+00
  1 14560 0.00000000E+00
  1 14561 0.00000000E+00
  1 14563 0.00000000E+00
  1 14564 0.00000000E+00
  1 14565 0.00000000E+00
  1 14566 0.00000000E+00
  1 14567 0.00000000E+00
  1 14568 0.00000000E+00
  1 14569 0.00000000E+00
  1 14570 0.00000000E+00
  1 14571 0.00000000E+00
  1 14572 0.00000000E+00
  1 14573 0.00000000E+00
  1 14574 0.00000000E+00
  1 14575 0.00000000E+00
  1 14577 0.00000000E+00
  1 14578 0.00000000E+00
  1 14580 0.00000000E+00
  1 14581 0.00000000E+00
  1 14582 0.00000000E+00
  1 14583 0.00000000E+00
  1 14584 0.00000000E+00
  1 14585 0.00000000E+00
  1 14587 0.00000000E+00
  1 14601 0.00000000E+00
  1 14602 0.00000000E+00
  1 14603 0.00000000E+00
  1 14604 0.00000000E+00
  1 14605 0.00000000E+00
  1 14606 0.00000000E+00
  1 14607 0.00000000E+00
  1 14608 0.00000000E+00
  1 14609 0.00000000E+00
  1 14615 0.00000000E+00
  1 14616 0.00000000E+00
  1 14617 0.00000000E+00
  1 14618 0.00000000E+00
  1 14619 0.00000000E+00
  1 14620 0.00000000E+00
  1 14634 0.00000000E+00
  1 14635 0.00000000E+00
  1 14637 0.00000000E+00
  1 14638 0.00000000E+00
  1 14639 0.00000000E+00
  1 14640 0.00000000E+00
  1 14641 0.00000000E+00
  1 14642 0.00000000E+00
  1 14643 0.00000000E+00
  1 14644 0.00000000E+00
  1 14645 0.00000000E+00
  1 14688 0.00000000E+00
  1 14689 0.00000000E+00
  1 14691 0.00000000E+00
  1 14697 0.00000000E+00
  1 14698 0.00000000E+00
  1 14730 0.00000000E+00
  1 14740 0.00000000E+00
  1 14741 0.00000000E+00
  1 14760 0.00000000E+00
  1 14761 0.00000000E+00
  1 14762 0.00000000E+00
  1 14763 0.00000000E+00
  1 14764 0.00000000E+00
  1 14765 0.00000000E+00
  1 14767 0.00000000E+00
  1 14768 0.00000000E+00
  1 14772 0.00000000E+00
  1 14773 0.00000000E+00
  1 14774 0.00000000E+00
  1 14775 0.00000000E+00
  1 14776 0.00000000E+00
  1 14777 0.00000000E+00
  1 14778 0.00000000E+00
  1 14804 0.00000000E+00
  1 14805 0.00000000E+00
  1 14806 0.00000000E+00
  1 14807 0.00000000E+00
  1 14808 0.00000000E+00
  1 14809 0.00000000E+00
  1 14810 0.00000000E+00
  1 14811 0.00000000E+00
  1 14819 0.00000000E+00
  1 14820 0.00000000E+00
  1 14821 0.00000000E+00
  1 14822 0.00000000E+00
  1 14823 0.00000000E+00
  1 14824 0.00000000E+00
  1 14825 0.00000000E+00
  1 14826 0.00000000E+00
  1 14827 0.00000000E+00
  1 14828 0.00000000E+00
  1 14829 0.00000000E+00
  1 14830 0.00000000E+00
  1 14831 0.00000000E+00
  1 14832 0.00000000E+00
  1 14833 0.00000000E+00
  1 14834 0.00000000E+00
  1 14835 0.00000000E+00
  1 14836 0.00000000E+00
  1 14837 0.00000000E+00
  1 14838 0.00000000E+00
  1 14839 0.00000000E+00
  1 14840 0.00000000E+00
  1 14841 0.00000000E+00
  1 14842 0.00000000E+00
  1 14843 0.00000000E+00
  1 14845 0.00000000E+00
  1 14846 0.00000000E+00
  1 14847 0.00000000E+00
  1 14848 0.00000000E+00
  1 14849 0.00000000E+00
  1 14850 0.00000000E+00
  1 14851 0.00000000E+00
  1 14852 0.00000000E+00
  1 14853 0.00000000E+00
  1 14858 0.00000000E+00
  1 14859 0.00000000E+00
  1 14860 0.00000000E+00
  1 14861 0.00000000E+00
  1 14862 0.00000000E+00
  1 14863 0.00000000E+00
  1 14864 0.00000000E+00
  1 14865 0.00000000E+00
  1 14866 0.00000000E+00
  1 14867 0.00000000E+00
  1 14868 0.00000000E+00
  1 14869 0.00000000E+00
  1 14870 0.00000000E+00
  1 14871 0.00000000E+00
  1 14872 0.00000000E+00
  1 14873 0.00000000E+00
  1 14874 0.00000000E+00
  1 14898 0.00000000E+00
  1 14900 0.00000000E+00
  1 14936 0.00000000E+00
  1 14937 0.00000000E+00
  1 14938 0.00000000E+00
  1 14940 0.00000000E+00
  1 14941 0.00000000E+00
  1 14942 0.00000000E+00
  1 14943 0.00000000E+00
  1 14963 0.00000000E+00
  1 14964 0.00000000E+00
  1 14965 0.00000000E+00
  1 14966 0.00000000E+00
  1 14967 0.00000000E+00
  1 14968 0.00000000E+00
  1 14969 0.00000000E+00
  1 14970 0.00000000E+00
  1 14971 0.00000000E+00
  1 14972 0.00000000E+00
  1 14973 0.00000000E+00
  1 14974 0.00000000E+00
  1 14975 0.00000000E+00
  1 14976 0.00000000E+00
  1 14977 0.00000000E+00
  1 14978 0.00000000E+00
  1 14979 0.00000000E+00
  1 14980 0.00000000E+00
  1 14981 0.00000000E+00
  1 14982 0.00000000E+00
  1 14983 0.00000000E+00
  1 14984 0.00000000E+00
  1 14985 0.00000000E+00
  1 14986 0.00000000E+00
  1 14987 0.00000000E+00
  1 14988 0.00000000E+00
  1 15004 0.00000000E+00
  1 15005 0.00000000E+00
  1 15006 0.00000000E+00
  1 15007 0.00000000E+00
  1 15008 0.00000000E+00
  1 15009 0.00000000E+00
  1 15010 0.00000000E+00
  1 15013 0.00000000E+00
  1 15014 0.00000000E+00
  1 15015 0.00000000E+00
  1 15016 0.00000000E+00
  1 15017 0.00000000E+00
  1 15018 0.00000000E+00
  1 15019 0.00000000E+00
  1 15020 0.00000000E+00
  1 15021 0.00000000E+00
  1 15022 0.00000000E+00
  1 15023 0.00000000E+00
  1 15024 0.00000000E+00
  1 15025 0.00000000E+00
  1 15026 0.00000000E+00
  1 15030 0.00000000E+00
  1 15031 0.00000000E+00
  1 15032 0.00000000E+00
  1 15033 0.00000000E+00
  1 15034 0.00000000E+00
  1 15035 0.00000000E+00
  1 15036 0.00000000E+00
  1 15037 0.00000000E+00
  1 15038 0.00000000E+00
  1 15039 0.00000000E+00
  1 15040 0.00000000E+00
  1 15041 0.00000000E+00
  1 15042 0.00000000E+00
  1 15043 0.00000000E+00
  1 15044 0.00000000E+00
  1 15045 0.00000000E+00
  1 15046 0.00000000E+00
  1 15047 0.00000000E+00
  1 15048 0.00000000E+00
  1 15049 0.00000000E+00
  1 15050 0.00000000E+00
  1 15051 0.00000000E+00
  1 15052 0.00000000E+00
  1 15053 0.00000000E+00
  1 15054 0.00000000E+00
  1 15057 0.00000000E+00
  1 15060 0.00000000E+00
  1 15063 0.00000000E+00
  1 15064 0.00000000E+00
  1 15065 0.00000000E+00
  1 15066 0.00000000E+00
  1 15067 0.00000000E+00
  1 15068 0.00000000E+00
  1 15074 0.00000000E+00
  1 15075 0.00000000E+00
  1 15077 0.00000000E+00
  1 15078 0.00000000E+00
  1 15080 0.00000000E+00
  1 15081 0.00000000E+00
  1 15082 0.00000000E+00
  1 15085 0.00000000E+00
  1 15087 0.00000000E+00
  1 15088 0.00000000E+00
  1 15094 0.00000000E+00
  1 15097 0.00000000E+00
  1 15099 0.00000000E+00
  1 15101 0.00000000E+00
  1 15104 0.00000000E+00
  1 15105 0.00000000E+00
  1 15106 0.00000000E+00
  1 15108 0.00000000E+00
  1 15109 0.00000000E+00
  1 15110 0.00000000E+00
  1 15111 0.00000000E+00
  1 15113 0.00000000E+00
  1 15114 0.00000000E+00
  1 15115 0.00000000E+00
  1 15116 0.00000000E+00
  1 15117 0.00000000E+00
  1 15121 0.00000000E+00
  1 15122 0.00000000E+00
  1 15123 0.00000000E+00
  1 15124 0.00000000E+00
  1 15125 0.00000000E+00
  1 15126 0.00000000E+00
  1 15127 0.00000000E+00
  1 15130 0.00000000E+00
  1 15131 0.00000000E+00
  1 15134 0.00000000E+00
  1 15137 0.00000000E+00
  1 15138 0.00000000E+00
  1 15141 0.00000000E+00
  1 15143 0.00000000E+00
  1 15144 0.00000000E+00
  1 15153 0.00000000E+00
  1 15154 0.00000000E+00
  1 15155 0.00000000E+00
  1 15156 0.00000000E+00
  1 15157 0.00000000E+00
  1 15158 0.00000000E+00
  1 15159 0.00000000E+00
  1 15161 0.00000000E+00
  1 15163 0.00000000E+00
  1 15164 0.00000000E+00
  1 15166 0.00000000E+00
  1 15170 0.00000000E+00
  1 15171 0.00000000E+00
  1 15172 0.00000000E+00
  1 15173 0.00000000E+00
  1 15176 0.00000000E+00
  1 15177 0.00000000E+00
  1 15178 0.00000000E+00
  1 15180 0.00000000E+00
  1 15185 0.00000000E+00
  1 15186 0.00000000E+00
  1 15188 0.00000000E+00
  1 15190 0.00000000E+00
  1 15191 0.00000000E+00
  1 15193 0.00000000E+00
  1 15195 0.00000000E+00
  1 15196 0.00000000E+00
  1 15197 0.00000000E+00
  1 15200 0.00000000E+00
  1 15201 0.00000000E+00
  1 15203 0.00000000E+00
  1 15206 0.00000000E+00
  1 15208 0.00000000E+00
  1 15210 0.00000000E+00
  1 15211 0.00000000E+00
  1 15214 0.00000000E+00
  1 15215 0.00000000E+00
  1 15216 0.00000000E+00
  1 15218 0.00000000E+00
  1 15220 0.00000000E+00
  1 15223 0.00000000E+00
  1 15226 0.00000000E+00
  1 15227 0.00000000E+00
  1 15228 0.00000000E+00
  1 15233 0.00000000E+00
  1 15235 0.00000000E+00
  1 15238 0.00000000E+00
  1 15239 0.00000000E+00
  1 15240 0.00000000E+00
  1 15242 0.00000000E+00
  1 15243 0.00000000E+00
  1 15244 0.00000000E+00
  1 15245 0.00000000E+00
  1 15246 0.00000000E+00