# File generated by Flopy version 3.9.1 on 02/10/2026 at 21:04:46.
BEGIN options
  SAVE_FLOWS
  NEWTON  UNDER_RELAXATION
END options

BEGIN packages
  disv6  voronoi_caseB.disv  disv
  ic6  voronoi_caseB.ic  ic
  chd6  voronoi_caseB.chd  chd
  npf6  voronoi_caseB.npf  npf
  wel6  voronoi_caseB.wel  well_package
  rch6  voronoi_caseB.rch  rch
  evt6  voronoi_caseB.evt  evt
  oc6  voronoi_caseB.oc  oc
END packages

