# File generated by Flopy version 3.9.1 on 02/10/2026 at 21:04:51.
BEGIN options
  BUDGET  FILEOUT  voronoi_caseB.cbc
  HEAD  FILEOUT  voronoi_caseB.hds
END options

BEGIN period  1
  SAVE  head  last
  SAVE  budget  last
  PRINT  budget  last
END period  1

