# File generated by Flopy version 3.9.1 on 04/13/2026 at 16:56:17.
BEGIN options
  SAVE_FLOWS
END options

BEGIN dimensions
  MAXBOUND  140911
END dimensions

BEGIN period  1
  236720 -1.85081852E-04
  236721 -1.85081852E-04
  236722 -2.25799859E-03
  236723 -1.33258933E-03
  236724 -1.85081852E-04
  236725 -4.81212815E-04
  236726 -3.33147334E-04
  237473 -0.00000000E+00
  237479 -0.00000000E+00
  237482 -0.00000000E+00
  237484 -0.00000000E+00
  237485 -0.00000000E+00
  237527 -5.55245556E-04
  237528 -3.70163704E-04
  237530 -3.70163704E-04
  237531 -3.70163704E-04
  237532 -7.03311038E-04
  237533 -3.70163704E-04
  237534 -7.03311038E-04
  238258 -0.00000000E+00
  238259 -0.00000000E+00
  238260 -0.00000000E+00
  238261 -0.00000000E+00
  238266 -0.00000000E+00
  238267 -0.00000000E+00
  238268 -0.00000000E+00
  238269 -2.96130963E-04
  238270 -0.00000000E+00
  238272 -0.00000000E+00
  238273 -0.00000000E+00
  238278 -0.00000000E+00
  238279 -0.00000000E+00
  238280 -2.96130963E-04
  238281 -2.96130963E-04
  238282 -0.00000000E+00
  238283 -0.00000000E+00
  238284 -0.00000000E+00
  238285 -0.00000000E+00
  238296 -0.00000000E+00
  238327 -4.44196445E-04
  238328 -2.33203134E-03
  238329 -1.07347474E-03
  238330 -4.44196445E-04
  238331 -1.25855659E-03
  238332 -1.07347474E-03
  238333 -3.36848971E-03
  238336 -2.15065112E-02
  238344 -2.22098222E-04
  238345 -3.33147334E-04
  238348 -2.96130963E-04
  239040 -0.00000000E+00
  239041 -2.96130963E-04
  239042 -0.00000000E+00
  239043 -2.96130963E-04
  239048 -0.00000000E+00
  239049 -0.00000000E+00
  239050 -0.00000000E+00
  239051 -0.00000000E+00
  239052 -2.96130963E-04
  239053 -2.96130963E-04
  239054 -2.96130963E-04
  239055 -2.96130963E-04
  239056 -0.00000000E+00
  239057 -0.00000000E+00
  239058 -0.00000000E+00
  239059 -0.00000000E+00
  239060 -0.00000000E+00
  239061 -0.00000000E+00
  239062 -0.00000000E+00
  239063 -0.00000000E+00
  239064 -0.00000000E+00
  239065 -0.00000000E+00
  239066 -0.00000000E+00
  239067 -0.00000000E+00
  239068 -0.00000000E+00
  239069 -0.00000000E+00
  239070 -0.00000000E+00
  239071 -0.00000000E+00
  239074 -0.00000000E+00
  239076 -0.00000000E+00
  239077 -0.00000000E+00
  239078 -0.00000000E+00
  239079 -0.00000000E+00
  239080 -0.00000000E+00
  239081 -0.00000000E+00
  239082 -0.00000000E+00
  239083 -0.00000000E+00
  239117 -6.03366837E-03
  239123 -2.96130963E-04
  239125 -2.96130963E-04
  239126 -2.33203134E-03
  239127 -1.07347474E-03
  239128 -1.45104172E-02
  239129 -2.58004102E-02
  239130 -1.07347474E-03
  239131 -3.36848971E-03
  239132 -2.58004102E-02
  239133 -8.83580761E-02
  239134 -2.15065112E-02
  239136 -7.29222497E-03
  239137 -2.48009682E-03
  239139 -2.22098222E-04
  239140 -7.40327408E-04
  239141 -3.33147334E-04
  239142 -2.22098222E-04
  239143 -3.33147334E-04
  239144 -3.33147334E-04
  239145 -7.40327408E-05
  239146 -2.96130963E-04
  239845 -0.00000000E+00
  239846 -0.00000000E+00
  239857 -0.00000000E+00
  239858 -0.00000000E+00
  239860 -0.00000000E+00
  239861 -0.00000000E+00
  239862 -0.00000000E+00
  239863 -0.00000000E+00
  239864 -0.00000000E+00
  239870 -0.00000000E+00
  239873 -0.00000000E+00
  239874 -0.00000000E+00
  239875 -0.00000000E+00
  239876 -0.00000000E+00
  239877 -0.00000000E+00
  239878 -0.00000000E+00
  239879 -0.00000000E+00
  239880 -0.00000000E+00
  239881 -0.00000000E+00
  239882 -0.00000000E+00
  239883 -0.00000000E+00
  239884 -0.00000000E+00
  239885 -0.00000000E+00
  239886 -0.00000000E+00
  239887 -0.00000000E+00
  239888 -0.00000000E+00
  239899 -0.00000000E+00
  239900 -1.85081852E-04
  239918 -0.00000000E+00
  239919 -0.00000000E+00
  239920 -0.00000000E+00
  239923 -2.96130963E-04
  239924 -2.96130963E-04
  239925 -2.96130963E-04
  239926 -2.96130963E-04
  239927 -1.03645837E-03
  239928 -1.03645837E-03
  239929 -2.96130963E-04
  239930 -2.96130963E-04
  239931 -2.96130963E-04
  239932 -2.96130963E-04
  239933 -1.03645837E-03
  239934 -1.03645837E-03
  239935 -1.03645837E-03
  239936 -1.03645837E-03
  239937 -1.45104172E-02
  239938 -2.58004102E-02
  239939 -1.03645837E-03
  239940 -1.96186763E-03
  239941 -1.03645837E-03
  239942 -1.96186763E-03
  239943 -1.96186763E-03
  239944 -3.18340785E-02
  239945 -1.96186763E-03
  239946 -3.18340785E-02
  239947 -2.58004102E-02
  239948 -8.83580761E-02
  239949 -3.18340785E-02
  239950 -9.46138427E-02
  239951 -7.29222497E-03
  239952 -2.48009682E-03
  239953 -2.57263774E-02
  239954 -8.25465060E-03
  239955 -7.40327408E-04
  239956 -3.33147334E-04
  239957 -7.40327408E-04
  239958 -3.33147334E-04
  239959 -3.33147334E-04
  239960 -7.40327408E-05
  239961 -3.33147334E-04
  239962 -7.40327408E-05
  239965 -4.81212815E-04
  240666 -0.00000000E+00
  240669 -0.00000000E+00
  240670 -0.00000000E+00
  240671 -0.00000000E+00
  240672 -0.00000000E+00
  240678 -0.00000000E+00
  240681 -0.00000000E+00
  240682 -1.11049111E-04
  240683 -0.00000000E+00
  240684 -1.11049111E-04
  240685 -1.11049111E-04
  240686 -1.85081852E-04
  240687 -1.11049111E-04
  240688 -1.85081852E-04
  240689 -0.00000000E+00
  240690 -1.11049111E-04
  240692 -7.40327408E-05
  240693 -1.11049111E-04
  240694 -1.85081852E-04
  240695 -7.40327408E-05
  240696 -0.00000000E+00
  240697 -1.85081852E-04
  240698 -0.00000000E+00
  240699 -1.85081852E-04
  240700 -0.00000000E+00
  240701 -0.00000000E+00
  240702 -0.00000000E+00
  240703 -0.00000000E+00
  240704 -0.00000000E+00
  240705 -1.85081852E-04
  240706 -0.00000000E+00
  240707 -0.00000000E+00
  240708 -0.00000000E+00
  240709 -0.00000000E+00
  240710 -0.00000000E+00
  240711 -0.00000000E+00
  240712 -0.00000000E+00
  240713 -0.00000000E+00
  240714 -0.00000000E+00
  240715 -0.00000000E+00
  240716 -0.00000000E+00
  240717 -2.59114593E-04
  240718 -2.59114593E-04
  240719 -2.59114593E-04
  240720 -2.59114593E-04
  240721 -0.00000000E+00
  240722 -0.00000000E+00
  240723 -0.00000000E+00
  240724 -0.00000000E+00
  240725 -2.59114593E-04
  240726 -2.59114593E-04
  240727 -7.03311038E-04
  240728 -7.03311038E-04
  240729 -2.59114593E-04
  240730 -1.77678578E-03
  240731 -2.59114593E-04
  240732 -1.77678578E-03
  240733 -1.77678578E-03
  240734 -3.10937511E-03
  240735 -1.77678578E-03
  240736 -3.10937511E-03
  240737 -2.59114593E-04
  240738 -1.77678578E-03
  240739 -7.03311038E-04
  240740 -1.77678578E-03
  240741 -1.77678578E-03
  240742 -3.10937511E-03
  240743 -1.77678578E-03
  240744 -4.93058054E-02
  240745 -3.10937511E-03
  240746 -3.99776800E-02
  240747 -3.10937511E-03
  240748 -3.99776800E-02
  240749 -4.93058054E-02
  240750 -3.99776800E-02
  240751 -3.99776800E-02
  240752 -2.57263774E-02
  240753 -8.25465060E-03
  240754 -2.57263774E-02
  240755 -8.25465060E-03
  240756 -5.92261926E-04
  240757 -9.62425630E-04
  240758 -5.92261926E-04
  240759 -9.62425630E-04
  240760 -9.62425630E-04
  240761 -3.70163704E-04
  240762 -9.62425630E-04
  240763 -3.70163704E-04
  240764 -0.00000000E+00
  241515 -7.40327408E-05
  241516 -0.00000000E+00
  241518 -0.00000000E+00
  241524 -0.00000000E+00
  241526 -0.00000000E+00
  241527 -0.00000000E+00
  241528 -0.00000000E+00
  241529 -0.00000000E+00
  241530 -0.00000000E+00
  241531 -0.00000000E+00
  241532 -0.00000000E+00
  241533 -0.00000000E+00
  241534 -0.00000000E+00
  241535 -0.00000000E+00
  241536 -0.00000000E+00
  241537 -0.00000000E+00
  241538 -0.00000000E+00
  241539 -0.00000000E+00
  241540 -0.00000000E+00
  241541 -0.00000000E+00
  241542 -0.00000000E+00
  241543 -0.00000000E+00
  241544 -0.00000000E+00
  241545 -0.00000000E+00
  241546 -0.00000000E+00
  241547 -7.03311038E-04
  241548 -7.03311038E-04
  241549 -7.03311038E-04
  241550 -7.03311038E-04
  241551 -0.00000000E+00
  241552 -0.00000000E+00
  241553 -0.00000000E+00
  241554 -0.00000000E+00
  241555 -7.03311038E-04
  241556 -7.03311038E-04
  241557 -7.03311038E-04
  241558 -7.03311038E-04
  241559 -7.03311038E-04
  241560 -1.77678578E-03
  241561 -7.03311038E-04
  241562 -1.77678578E-03
  241563 -1.77678578E-03
  241564 -4.93058054E-02
  241565 -1.77678578E-03
  241566 -4.93058054E-02
  241567 -7.03311038E-04
  241568 -3.84970252E-03
  241569 -7.03311038E-04
  241570 -3.84970252E-03
  241571 -3.84970252E-03
  241572 -7.14415949E-03
  241573 -3.84970252E-03
  241574 -7.14415949E-03
  241575 -4.93058054E-02
  241576 -3.99776800E-02
  241577 -4.93058054E-02
  241578 -3.99776800E-02
  241579 -3.99776800E-02
  241580 -3.99776800E-02
  241581 -3.99776800E-02
  241582 -3.99776800E-02
  241583 -7.14415949E-03
  241584 -1.81380215E-03
  241585 -7.14415949E-03
  241586 -1.81380215E-03
  241587 -1.81380215E-03
  241588 -1.81380215E-03
  241589 -1.81380215E-03
  241590 -1.81380215E-03
  241591 -2.96130963E-02
  241592 -3.62760430E-03
  241593 -2.07291674E-03
  241594 -2.07291674E-03
  241595 -2.07291674E-03
  241596 -2.07291674E-03
  241597 -8.88392890E-04
  241598 -9.25409260E-04
  241599 -7.03311038E-04
  241600 -2.48009682E-03
  241601 -2.33203134E-03
  242261 -7.40327408E-05
  242272 -1.11049111E-04
  242273 -1.11049111E-04
  242371 -0.00000000E+00
  242372 -0.00000000E+00
  242373 -0.00000000E+00
  242378 -0.00000000E+00
  242379 -0.00000000E+00
  242380 -0.00000000E+00
  242381 -0.00000000E+00
  242382 -0.00000000E+00
  242383 -0.00000000E+00
  242384 -0.00000000E+00
  242385 -0.00000000E+00
  242386 -0.00000000E+00
  242387 -0.00000000E+00
  242388 -0.00000000E+00
  242389 -0.00000000E+00
  242390 -0.00000000E+00
  242391 -0.00000000E+00
  242392 -0.00000000E+00
  242393 -0.00000000E+00
  242394 -0.00000000E+00
  242395 -0.00000000E+00
  242396 -0.00000000E+00
  242397 -0.00000000E+00
  242398 -0.00000000E+00
  242399 -0.00000000E+00
  242400 -1.11049111E-04
  242401 -1.11049111E-04
  242402 -7.03311038E-04
  242403 -7.03311038E-04
  242404 -1.11049111E-04
  242405 -1.11049111E-04
  242406 -1.11049111E-04
  242407 -1.11049111E-04
  242408 -1.11049111E-04
  242409 -1.11049111E-04
  242410 -1.11049111E-04
  242411 -1.11049111E-04
  242412 -1.11049111E-04
  242413 -1.11049111E-04
  242414 -7.03311038E-04
  242415 -3.84970252E-03
  242416 -1.11049111E-04
  242417 -4.59002993E-03
  242418 -3.84970252E-03
  242419 -7.14415949E-03
  242420 -4.59002993E-03
  242421 -9.25409260E-04
  242422 -1.11049111E-04
  242423 -4.59002993E-03
  242424 -1.11049111E-04
  242425 -4.59002993E-03
  242426 -4.59002993E-03
  242427 -9.25409260E-04
  242428 -4.59002993E-03
  242429 -9.25409260E-04
  242430 -7.14415949E-03
  242431 -1.81380215E-03
  242432 -9.25409260E-04
  242433 -8.14360149E-04
  242434 -1.81380215E-03
  242435 -1.81380215E-03
  242436 -8.14360149E-04
  242437 -8.14360149E-04
  242438 -9.25409260E-04
  242439 -8.14360149E-04
  242440 -9.25409260E-04
  242441 -8.14360149E-04
  242442 -8.14360149E-04
  242443 -8.14360149E-04
  242444 -8.14360149E-04
  242445 -8.14360149E-04
  242446 -2.07291674E-03
  242447 -2.07291674E-03
  242448 -6.29278297E-04
  242449 -6.29278297E-04
  242450 -8.88392890E-04
  242451 -8.88392890E-04
  242452 -2.96130963E-04
  242453 -2.96130963E-04
  242454 -6.29278297E-04
  242455 -6.29278297E-04
  242456 -6.29278297E-04
  242457 -6.29278297E-04
  242458 -2.96130963E-04
  242459 -2.96130963E-04
  242460 -2.96130963E-04
  242461 -2.96130963E-04
  242462 -2.48009682E-03
  242463 -2.33203134E-03
  242464 -7.40327408E-05
  242465 -2.22098222E-04
  242466 -2.33203134E-03
  242468 -2.22098222E-04
  243112 -0.00000000E+00
  243123 -7.40327408E-05
  243124 -7.40327408E-05
  243125 -7.40327408E-05
  243126 -7.40327408E-05
  243127 -1.11049111E-04
  243128 -1.11049111E-04
  243129 -1.11049111E-04
  243130 -1.11049111E-04
  243131 -7.40327408E-05
  243132 -7.40327408E-05
  243133 -0.00000000E+00
  243134 -0.00000000E+00
  243135 -1.11049111E-04
  243136 -1.11049111E-04
  243137 -0.00000000E+00
  243138 -0.00000000E+00
  243141 -1.11049111E-04
  243142 -7.40327408E-05
  243145 -7.40327408E-05
  243146 -1.48065482E-04
  243147 -1.11049111E-04
  243148 -7.40327408E-05
  243149 -0.00000000E+00
  243150 -1.11049111E-04
  243151 -1.48065482E-04
  243154 -1.48065482E-04
  243155 -0.00000000E+00
  243160 -1.48065482E-04
  243161 -0.00000000E+00
  243162 -0.00000000E+00
  243163 -0.00000000E+00
  243164 -0.00000000E+00
  243165 -0.00000000E+00
  243166 -0.00000000E+00
  243167 -0.00000000E+00
  243170 -0.00000000E+00
  243171 -1.11049111E-04
  243204 -0.00000000E+00
  243205 -0.00000000E+00
  243206 -0.00000000E+00
  243207 -0.00000000E+00
  243211 -0.00000000E+00
  243212 -0.00000000E+00
  243213 -0.00000000E+00
  243214 -0.00000000E+00
  243215 -2.59114593E-04
  243216 -0.00000000E+00
  243217 -0.00000000E+00
  243218 -0.00000000E+00
  243219 -0.00000000E+00
  243220 -0.00000000E+00
  243221 -0.00000000E+00
  243222 -0.00000000E+00
  243223 -0.00000000E+00
  243224 -0.00000000E+00
  243225 -0.00000000E+00
  243226 -2.59114593E-04
  243227 -1.11049111E-04
  243228 -0.00000000E+00
  243229 -0.00000000E+00
  243230 -1.11049111E-04
  243231 -1.11049111E-04
  243232 -1.11049111E-03
  243233 -1.11049111E-03
  243234 -1.11049111E-03
  243235 -1.11049111E-03
  243236 -5.03422637E-03
  243237 -5.03422637E-03
  243238 -5.03422637E-03
  243239 -5.03422637E-03
  243240 -1.11049111E-03
  243241 -1.11049111E-03
  243242 -8.51376519E-04
  243243 -8.51376519E-04
  243244 -5.03422637E-03
  243245 -5.03422637E-03
  243246 -1.48065482E-04
  243247 -1.48065482E-04
  243248 -5.03422637E-03
  243249 -2.99832600E-03
  243250 -5.03422637E-03
  243251 -2.99832600E-03
  243252 -2.99832600E-03
  243253 -7.77343778E-04
  243254 -2.99832600E-03
  243255 -7.77343778E-04
  243256 -5.03422637E-03
  243257 -2.99832600E-03
  243258 -1.48065482E-04
  243259 -7.40327408E-04
  243260 -2.99832600E-03
  243261 -7.77343778E-04
  243262 -7.40327408E-04
  243263 -1.85081852E-04
  243264 -7.77343778E-04
  243265 -0.00000000E+00
  243266 -7.77343778E-04
  243267 -0.00000000E+00
  243268 -0.00000000E+00
  243269 -0.00000000E+00
  243270 -0.00000000E+00
  243271 -0.00000000E+00
  243272 -7.77343778E-04
  243273 -0.00000000E+00
  243274 -1.85081852E-04
  243275 -0.00000000E+00
  243276 -0.00000000E+00
  243277 -0.00000000E+00
  243278 -0.00000000E+00
  243279 -0.00000000E+00
  243280 -0.00000000E+00
  243281 -0.00000000E+00
  243282 -0.00000000E+00
  243283 -0.00000000E+00
  243284 -2.22098222E-04
  243285 -2.22098222E-04
  243286 -2.22098222E-04
  243287 -2.22098222E-04
  243288 -0.00000000E+00
  243289 -0.00000000E+00
  243290 -0.00000000E+00
  243291 -0.00000000E+00
  243292 -2.22098222E-04
  243293 -2.22098222E-04
  243294 -0.00000000E+00
  243295 -0.00000000E+00
  243296 -2.22098222E-04
  243297 -2.22098222E-04
  243298 -2.22098222E-04
  243299 -2.22098222E-04
  243300 -2.22098222E-04
  243301 -1.11049111E-04
  243302 -2.22098222E-04
  243303 -1.11049111E-04
  243304 -2.22098222E-04
  243305 -2.22098222E-04
  243306 -0.00000000E+00
  243307 -0.00000000E+00
  243308 -2.22098222E-04
  243309 -1.11049111E-04
  243310 -0.00000000E+00
  243311 -6.66294667E-04
  243312 -1.11049111E-04
  243314 -1.11049111E-04
  243918 -0.00000000E+00
  243919 -0.00000000E+00
  243920 -0.00000000E+00
  243921 -0.00000000E+00
  243922 -0.00000000E+00
  243923 -0.00000000E+00
  243924 -0.00000000E+00
  243925 -0.00000000E+00
  243926 -3.70163704E-05
  243927 -3.70163704E-05
  243929 -3.70163704E-05
  243930 -1.11049111E-04
  243931 -1.11049111E-04
  243932 -1.11049111E-04
  243933 -1.11049111E-04
  243934 -0.00000000E+00
  243935 -1.11049111E-04
  243936 -0.00000000E+00
  243937 -1.11049111E-04
  243938 -1.11049111E-04
  243939 -0.00000000E+00
  243940 -1.11049111E-04
  243941 -0.00000000E+00
  243942 -1.11049111E-04
  243943 -1.85081852E-04
  243944 -1.11049111E-04
  243945 -1.85081852E-04
  243946 -1.85081852E-04
  243947 -0.00000000E+00
  243948 -1.85081852E-04
  243949 -0.00000000E+00
  243950 -0.00000000E+00
  243951 -0.00000000E+00
  243952 -0.00000000E+00
  243953 -0.00000000E+00
  243954 -0.00000000E+00
  243955 -0.00000000E+00
  243956 -0.00000000E+00
  243957 -0.00000000E+00
  243958 -0.00000000E+00
  243959 -3.70163704E-05
  243960 -0.00000000E+00
  243961 -3.70163704E-05
  243962 -3.70163704E-05
  243963 -3.70163704E-05
  243964 -3.70163704E-05
  243965 -3.70163704E-05
  243966 -1.11049111E-04
  243967 -1.48065482E-04
  243968 -1.85081852E-04
  243969 -3.33147334E-04
  243979 -3.70163704E-05
  243981 -1.85081852E-04
  243982 -7.40327408E-05
  243985 -2.59114593E-04
  243986 -2.59114593E-04
  243987 -1.85081852E-04
  243988 -1.48065482E-04
  243990 -0.00000000E+00
  243992 -0.00000000E+00
  243993 -0.00000000E+00
  243994 -2.59114593E-04
  243995 -0.00000000E+00
  243996 -2.59114593E-04
  243997 -1.29557296E-03
  243998 -1.29557296E-03
  243999 -4.07180074E-04
  244000 -1.29557296E-03
  244001 -4.07180074E-04
  244002 -2.59114593E-04
  244003 -1.11049111E-04
  244004 -2.59114593E-04
  244005 -1.11049111E-04
  244006 -1.11049111E-04
  244007 -1.11049111E-04
  244008 -1.11049111E-04
  244009 -1.11049111E-04
  244010 -4.07180074E-04
  244011 -7.40327408E-04
  244012 -4.07180074E-04
  244013 -7.40327408E-04
  244014 -7.40327408E-04
  244015 -7.40327408E-04
  244016 -7.40327408E-04
  244017 -7.40327408E-04
  244018 -8.51376519E-04
  244019 -8.51376519E-04
  244020 -8.51376519E-04
  244021 -8.51376519E-04
  244022 -1.48065482E-04
  244023 -1.48065482E-04
  244024 -1.48065482E-04
  244025 -1.48065482E-04
  244026 -1.03645837E-03
  244027 -1.03645837E-03
  244028 -1.03645837E-03
  244029 -1.03645837E-03
  244030 -6.66294667E-04
  244031 -6.66294667E-04
  244032 -6.66294667E-04
  244033 -6.66294667E-04
  244034 -1.48065482E-04
  244035 -7.40327408E-04
  244036 -1.48065482E-04
  244037 -7.40327408E-04
  244038 -7.40327408E-04
  244039 -1.85081852E-04
  244040 -7.40327408E-04
  244041 -1.85081852E-04
  244042 -6.66294667E-04
  244043 -0.00000000E+00
  244044 -6.66294667E-04
  244045 -0.00000000E+00
  244046 -0.00000000E+00
  244047 -0.00000000E+00
  244048 -0.00000000E+00
  244049 -0.00000000E+00
  244050 -1.85081852E-04
  244051 -0.00000000E+00
  244052 -1.85081852E-04
  244053 -0.00000000E+00
  244054 -0.00000000E+00
  244055 -0.00000000E+00
  244056 -0.00000000E+00
  244057 -0.00000000E+00
  244058 -0.00000000E+00
  244059 -0.00000000E+00
  244060 -0.00000000E+00
  244061 -0.00000000E+00
  244062 -0.00000000E+00
  244063 -0.00000000E+00
  244064 -0.00000000E+00
  244065 -0.00000000E+00
  244066 -0.00000000E+00
  244067 -0.00000000E+00
  244068 -0.00000000E+00
  244069 -0.00000000E+00
  244070 -0.00000000E+00
  244071 -0.00000000E+00
  244072 -0.00000000E+00
  244073 -0.00000000E+00
  244074 -0.00000000E+00
  244075 -0.00000000E+00
  244076 -0.00000000E+00
  244077 -0.00000000E+00
  244078 -0.00000000E+00
  244079 -0.00000000E+00
  244080 -0.00000000E+00
  244081 -0.00000000E+00
  244082 -0.00000000E+00
  244083 -0.00000000E+00
  244084 -0.00000000E+00
  244085 -0.00000000E+00
  244086 -0.00000000E+00
  244087 -6.66294667E-04
  244088 -0.00000000E+00
  244089 -6.66294667E-04
  244090 -0.00000000E+00
  244091 -0.00000000E+00
  244092 -0.00000000E+00
  244093 -0.00000000E+00
  244094 -0.00000000E+00
  244095 -5.55245556E-04
  244096 -0.00000000E+00
  244097 -5.55245556E-04
  244098 -6.66294667E-04
  244100 -6.66294667E-04
  244693 -1.11049111E-04
  244694 -1.11049111E-04
  244695 -0.00000000E+00
  244696 -0.00000000E+00
  244701 -0.00000000E+00
  244702 -0.00000000E+00
  244704 -0.00000000E+00
  244705 -1.11049111E-04
  244706 -1.85081852E-04
  244707 -0.00000000E+00
  244708 -3.70163704E-05
  244709 -1.85081852E-04
  244710 -0.00000000E+00
  244711 -3.70163704E-05
  244712 -7.40327408E-05
  244713 -0.00000000E+00
  244714 -3.70163704E-05
  244715 -0.00000000E+00
  244716 -3.70163704E-05
  244717 -3.70163704E-05
  244718 -7.40327408E-05
  244719 -3.70163704E-05
  244720 -7.40327408E-05
  244721 -0.00000000E+00
  244722 -3.70163704E-05
  244723 -7.40327408E-05
  244724 -2.59114593E-04
  244725 -3.70163704E-05
  244726 -3.70163704E-05
  244727 -2.59114593E-04
  244728 -2.59114593E-04
  244729 -7.40327408E-05
  244730 -2.59114593E-04
  244731 -7.40327408E-05
  244732 -2.59114593E-04
  244733 -2.59114593E-04
  244734 -2.59114593E-04
  244735 -2.59114593E-04
  244736 -2.59114593E-04
  244737 -1.85081852E-04
  244738 -1.85081852E-04
  244739 -1.85081852E-04
  244740 -1.85081852E-04
  244741 -3.33147334E-04
  244742 -1.85081852E-04
  244743 -1.85081852E-04
  244744 -1.85081852E-04
  244745 -1.85081852E-04
  244746 -3.33147334E-04
  244747 -3.33147334E-04
  244748 -3.33147334E-04
  244749 -3.33147334E-04
  244750 -1.11049111E-04
  244751 -3.70163704E-05
  244752 -2.96130963E-04
  244753 -1.85081852E-04
  244754 -3.70163704E-05
  244756 -1.85081852E-04
  244757 -2.18396585E-03
  244759 -1.85081852E-04
  244760 -4.44196445E-04
  244761 -3.33147334E-04
  244762 -1.85081852E-04
  244763 -1.48065482E-04
  244764 -1.48065482E-03
  244765 -7.77343778E-04
  244766 -7.77343778E-04
  244767 -7.77343778E-04
  244768 -7.77343778E-04
  244769 -1.29557296E-03
  244770 -1.29557296E-03
  244771 -4.07180074E-04
  244772 -2.29501496E-03
  244773 -3.70163704E-03
  244774 -7.77343778E-04
  244775 -2.29501496E-03
  244776 -7.77343778E-04
  244777 -2.29501496E-03
  244778 -2.29501496E-03
  244779 -3.70163704E-03
  244780 -2.29501496E-03
  244781 -3.70163704E-03
  244782 -4.07180074E-04
  244783 -7.40327408E-04
  244784 -3.70163704E-03
  244785 -1.85081852E-03
  244786 -7.40327408E-04
  244787 -7.40327408E-04
  244788 -1.85081852E-03
  244789 -1.85081852E-03
  244790 -3.70163704E-03
  244791 -1.85081852E-03
  244792 -3.70163704E-03
  244793 -1.85081852E-03
  244794 -1.85081852E-03
  244795 -1.85081852E-03
  244796 -1.85081852E-03
  244797 -1.85081852E-03
  244798 -1.03645837E-03
  244799 -1.03645837E-03
  244800 -1.03645837E-03
  244801 -1.03645837E-03
  244802 -6.66294667E-04
  244803 -6.66294667E-04
  244804 -1.48065482E-04
  244805 -1.48065482E-04
  244806 -1.03645837E-03
  244807 -1.03645837E-03
  244808 -1.03645837E-03
  244809 -1.03645837E-03
  244810 -1.48065482E-04
  244811 -1.48065482E-04
  244812 -1.48065482E-04
  244813 -1.48065482E-04
  244814 -6.66294667E-04
  244815 -0.00000000E+00
  244816 -1.48065482E-04
  244817 -0.00000000E+00
  244818 -0.00000000E+00
  244819 -0.00000000E+00
  244820 -0.00000000E+00
  244821 -0.00000000E+00
  244822 -1.48065482E-04
  244823 -0.00000000E+00
  244824 -1.48065482E-04
  244825 -0.00000000E+00
  244826 -0.00000000E+00
  244827 -0.00000000E+00
  244828 -0.00000000E+00
  244829 -0.00000000E+00
  244830 -0.00000000E+00
  244831 -0.00000000E+00
  244832 -0.00000000E+00
  244833 -0.00000000E+00
  244834 -0.00000000E+00
  244835 -0.00000000E+00
  244836 -0.00000000E+00
  244837 -0.00000000E+00
  244838 -0.00000000E+00
  244839 -0.00000000E+00
  244840 -0.00000000E+00
  244841 -0.00000000E+00
  244842 -0.00000000E+00
  244843 -0.00000000E+00
  244844 -0.00000000E+00
  244845 -0.00000000E+00
  244846 -0.00000000E+00
  244847 -0.00000000E+00
  244848 -2.22098222E-04
  244849 -2.22098222E-04
  244850 -2.22098222E-04
  244851 -2.22098222E-04
  244852 -3.70163704E-05
  244853 -0.00000000E+00
  244854 -0.00000000E+00
  244855 -5.55245556E-04
  244856 -7.40327408E-04
  244858 -7.40327408E-04
  244859 -4.10881711E-03
  245475 -3.70163704E-05
  245476 -7.40327408E-05
  245477 -3.70163704E-05
  245478 -7.40327408E-05
  245483 -3.70163704E-05
  245484 -7.40327408E-05
  245485 -3.70163704E-05
  245486 -7.40327408E-05
  245487 -7.40327408E-05
  245488 -2.59114593E-04
  245489 -7.40327408E-05
  245490 -2.59114593E-04
  245491 -2.59114593E-04
  245492 -2.59114593E-04
  245493 -2.59114593E-04
  245494 -2.59114593E-04
  245495 -7.40327408E-05
  245496 -2.59114593E-04
  245497 -7.40327408E-05
  245498 -2.59114593E-04
  245499 -2.59114593E-04
  245500 -2.59114593E-04
  245501 -2.59114593E-04
  245502 -2.59114593E-04
  245503 -1.85081852E-04
  245504 -1.85081852E-04
  245505 -2.96130963E-04
  245506 -2.96130963E-04
  245507 -3.33147334E-04
  245508 -3.33147334E-04
  245509 -1.85081852E-04
  245510 -1.85081852E-04
  245511 -2.96130963E-04
  245512 -2.96130963E-04
  245513 -2.96130963E-04
  245514 -2.96130963E-04
  245515 -1.85081852E-04
  245516 -1.85081852E-04
  245517 -1.85081852E-04
  245518 -1.85081852E-04
  245519 -2.96130963E-04
  245520 -2.96130963E-04
  245521 -1.11049111E-04
  245522 -1.11049111E-04
  245523 -7.40327408E-05
  245524 -1.11049111E-04
  245525 -1.11049111E-04
  245526 -1.11049111E-04
  245527 -1.11049111E-04
  245528 -7.40327408E-05
  245529 -7.40327408E-05
  245530 -7.40327408E-05
  245531 -7.40327408E-05
  245532 -7.40327408E-05
  245533 -1.11049111E-04
  245534 -2.22098222E-04
  245535 -1.11049111E-04
  245536 -1.11049111E-04
  245537 -1.11049111E-04
  245538 -1.11049111E-04
  245539 -2.22098222E-04
  245540 -2.22098222E-04
  245541 -2.22098222E-04
  245542 -2.22098222E-04
  245543 -3.70163704E-04
  245544 -2.03590037E-03
  245545 -3.70163704E-04
  245546 -3.70163704E-04
  245547 -3.70163704E-04
  245548 -3.70163704E-04
  245549 -2.03590037E-03
  245550 -2.03590037E-03
  245551 -2.03590037E-03
  245552 -2.03590037E-03
  245553 -3.99776800E-03
  245554 -2.29501496E-03
  245555 -3.70163704E-03
  245556 -3.99776800E-03
  245557 -5.18229186E-04
  245558 -2.03590037E-03
  245559 -3.99776800E-03
  245560 -2.03590037E-03
  245561 -3.99776800E-03
  245562 -3.99776800E-03
  245563 -5.18229186E-04
  245564 -3.99776800E-03
  245565 -5.18229186E-04
  245566 -3.70163704E-03
  245567 -1.85081852E-03
  245568 -5.18229186E-04
  245569 -4.44196445E-04
  245570 -1.85081852E-03
  245571 -1.85081852E-03
  245572 -4.44196445E-04
  245573 -4.44196445E-04
  245574 -5.18229186E-04
  245575 -4.44196445E-04
  245576 -5.18229186E-04
  245577 -4.44196445E-04
  245578 -4.44196445E-04
  245579 -4.44196445E-04
  245580 -4.44196445E-04
  245581 -4.44196445E-04
  245582 -1.03645837E-03
  245583 -1.03645837E-03
  245584 -5.92261926E-04
  245585 -5.92261926E-04
  245586 -1.48065482E-04
  245587 -1.48065482E-04
  245588 -0.00000000E+00
  245589 -0.00000000E+00
  245590 -5.92261926E-04
  245591 -5.92261926E-04
  245592 -5.92261926E-04
  245593 -5.92261926E-04
  245594 -0.00000000E+00
  245595 -0.00000000E+00
  245596 -0.00000000E+00
  245597 -0.00000000E+00
  245598 -1.48065482E-04
  245599 -0.00000000E+00
  245600 -0.00000000E+00
  245601 -0.00000000E+00
  245602 -0.00000000E+00
  245603 -0.00000000E+00
  245604 -0.00000000E+00
  245605 -0.00000000E+00
  245606 -0.00000000E+00
  245607 -0.00000000E+00
  245608 -0.00000000E+00
  245609 -0.00000000E+00
  245610 -0.00000000E+00
  245611 -0.00000000E+00
  245612 -0.00000000E+00
  245613 -0.00000000E+00
  245614 -0.00000000E+00
  245615 -0.00000000E+00
  245616 -0.00000000E+00
  245617 -0.00000000E+00
  245618 -0.00000000E+00
  245619 -0.00000000E+00
  245620 -0.00000000E+00
  245621 -0.00000000E+00
  245622 -0.00000000E+00
  245623 -0.00000000E+00
  245624 -0.00000000E+00
  245625 -0.00000000E+00
  245626 -0.00000000E+00
  245627 -0.00000000E+00
  245628 -0.00000000E+00
  245629 -0.00000000E+00
  245630 -2.22098222E-04
  245631 -2.22098222E-04
  245632 -5.18229186E-04
  245633 -5.18229186E-04
  245634 -3.70163704E-04
  245635 -5.18229186E-04
  245636 -5.18229186E-04
  245637 -5.18229186E-04
  245638 -5.18229186E-04
  245639 -3.70163704E-04
  245640 -3.70163704E-04
  245641 -3.70163704E-04
  245642 -3.70163704E-04
  245643 -0.00000000E+00
  245645 -0.00000000E+00
  245646 -0.00000000E+00
  245647 -0.00000000E+00
  245648 -0.00000000E+00
  246244 -3.70163704E-05
  246245 -3.70163704E-05
  246246 -3.70163704E-05
  246247 -3.70163704E-05
  246248 -3.70163704E-05
  246250 -3.70163704E-05
  246252 -0.00000000E+00
  246253 -3.70163704E-05
  246254 -3.70163704E-05
  246255 -0.00000000E+00
  246256 -8.14360149E-04
  246257 -3.70163704E-05
  246258 -7.40327408E-05
  246259 -3.70163704E-05
  246260 -7.40327408E-05
  246261 -7.40327408E-05
  246262 -7.40327408E-05
  246263 -7.40327408E-05
  246264 -7.40327408E-05
  246265 -3.70163704E-05
  246266 -7.40327408E-05
  246267 -8.14360149E-04
  246268 -1.85081852E-04
  246269 -7.40327408E-05
  246270 -7.40327408E-05
  246271 -1.85081852E-04
  246272 -1.85081852E-04
  246273 -7.77343778E-04
  246274 -7.77343778E-04
  246275 -7.77343778E-04
  246276 -7.77343778E-04
  246277 -7.40327408E-05
  246278 -7.40327408E-05
  246279 -7.40327408E-05
  246280 -7.40327408E-05
  246281 -7.77343778E-04
  246282 -7.77343778E-04
  246283 -1.48065482E-04
  246284 -1.48065482E-04
  246285 -7.40327408E-05
  246286 -7.40327408E-05
  246287 -3.70163704E-05
  246288 -3.70163704E-05
  246289 -0.00000000E+00
  246290 -0.00000000E+00
  246291 -0.00000000E+00
  246292 -0.00000000E+00
  246293 -0.00000000E+00
  246294 -0.00000000E+00
  246295 -0.00000000E+00
  246296 -0.00000000E+00
  246297 -0.00000000E+00
  246298 -0.00000000E+00
  246299 -0.00000000E+00
  246300 -0.00000000E+00
  246301 -0.00000000E+00
  246302 -0.00000000E+00
  246303 -0.00000000E+00
  246304 -0.00000000E+00
  246305 -0.00000000E+00
  246306 -3.70163704E-04
  246307 -0.00000000E+00
  246308 -3.70163704E-04
  246309 -3.70163704E-04
  246310 -1.48065482E-04
  246311 -3.70163704E-04
  246312 -1.48065482E-04
  246313 -0.00000000E+00
  246314 -3.70163704E-04
  246315 -0.00000000E+00
  246316 -0.00000000E+00
  246317 -3.70163704E-04
  246318 -1.48065482E-04
  246319 -0.00000000E+00
  246320 -3.70163704E-05
  246321 -1.48065482E-04
  246322 -1.48065482E-04
  246323 -1.48065482E-04
  246324 -1.48065482E-04
  246325 -3.70163704E-05
  246326 -3.70163704E-05
  246327 -3.70163704E-05
  246328 -3.70163704E-05
  246329 -1.48065482E-04
  246330 -1.48065482E-04
  246331 -3.70163704E-05
  246332 -3.70163704E-05
  246333 -3.70163704E-05
  246334 -3.70163704E-05
  246335 -0.00000000E+00
  246336 -0.00000000E+00
  246337 -1.11049111E-04
  246338 -1.11049111E-04
  246339 -1.11049111E-04
  246340 -1.11049111E-04
  246341 -1.85081852E-04
  246342 -1.85081852E-04
  246343 -1.85081852E-04
  246344 -1.85081852E-04
  246345 -1.11049111E-04
  246346 -1.11049111E-04
  246347 -3.70163704E-05
  246348 -3.70163704E-05
  246349 -1.85081852E-04
  246350 -1.85081852E-04
  246351 -1.48065482E-04
  246352 -1.48065482E-04