# File generated by Flopy version 3.9.1 on 04/13/2026 at 16:56:18.
BEGIN options
  FIXED_CELL
  PRINT_FLOWS
  SAVE_FLOWS
END options

BEGIN dimensions
  MAXBOUND  142333
END dimensions

BEGIN period  1
  1 1.13985065E-09
  2 1.14073603E-09
  3 1.02809334E-08
  4 1.03014723E-08
  5 1.03280855E-08
  6 1.03605759E-08
  7 1.03987085E-08
  8 1.03228249E-08
  9 1.02285562E-08
  10 1.02601171E-08
  11 1.02709135E-08
  12 1.02248359E-08
  13 1.02213052E-08
  14 1.01888054E-08
  15 1.01849359E-08
  16 1.01515171E-08
  17 1.02279625E-08
  18 1.02033514E-08
  19 1.01847116E-08
  20 1.02163721E-08
  21 1.02113723E-08
  22 1.01727766E-08
  23 1.01676343E-08
  24 1.01628639E-08
  25 1.01436790E-08
  26 1.01248383E-08
  27 1.01051076E-08
  28 1.01313976E-08
  29 1.01261124E-08
  30 1.00924794E-08
  31 1.00870509E-08
  32 1.02129964E-08
  33 1.02212266E-08
  34 1.01693199E-08
  35 1.01778144E-08
  36 1.02359951E-08
  37 1.02571845E-08
  38 1.01930462E-08
  39 1.02148913E-08
  40 1.01278599E-08
  41 1.01366204E-08
  42 1.00888606E-08
  43 1.00978874E-08
  44 1.01523178E-08
  45 1.01748218E-08
  46 1.01140513E-08
  47 1.01372150E-08
  48 1.02846308E-08
  49 1.03181264E-08
  50 1.02431771E-08
  51 1.02776846E-08
  52 1.03574234E-08
  53 1.04022388E-08
  54 1.03181532E-08
  55 1.03642851E-08
  56 1.02039505E-08
  57 1.02394735E-08
  58 1.01671871E-08
  59 1.02037255E-08
  60 1.02811168E-08
  61 1.03285677E-08
  62 1.02465424E-08
  63 1.02953096E-08
  64 1.04522586E-08
  65 1.05071433E-08
  66 1.04157507E-08
  67 1.04721937E-08
  68 1.05665331E-08
  69 1.06300530E-08
  70 1.05332371E-08
  71 1.05984888E-08
  72 1.03814800E-08
  73 1.04394807E-08
  74 1.03496645E-08
  75 1.04092163E-08
  76 1.05021750E-08
  77 1.05691531E-08
  78 1.04735525E-08
  79 1.05422450E-08
  80 1.06675468E-08
  81 1.07400050E-08
  82 1.06399957E-08
  83 1.07142793E-08
  84 1.06148569E-08
  85 1.06909474E-08
  86 1.07915819E-08
  87 1.08714871E-08
  88 1.07700782E-08
  89 1.08518175E-08
  90 1.09535885E-08
  91 1.09357449E-08
  92 1.10907000E-08
  93 1.11832838E-08
  94 1.12769763E-08
  95 1.13714101E-08
  96 1.29233501E-08
  97 1.05867652E-08
  98 1.05048810E-08
  99 1.02928568E-08
  100 1.02658134E-08
  101 1.03708563E-08
  102 1.04268924E-08
  103 1.03533210E-08
  104 1.03037246E-08
  105 1.02419377E-08
  106 1.02846822E-08
  107 1.02214773E-08
  108 1.02395717E-08
  109 1.01922575E-08
  110 1.02111693E-08
  111 1.01626301E-08
  112 1.01512739E-08
  113 1.01169396E-08
  114 1.01205724E-08
  115 1.00853294E-08
  116 1.01859556E-08
  117 1.01362091E-08
  118 1.01641854E-08
  119 1.01132551E-08
  120 1.00930913E-08
  121 1.00569508E-08
  122 1.00690967E-08
  123 1.00320743E-08
  124 1.00895255E-08
  125 1.00692503E-08
  126 1.00571852E-08
  127 1.00363689E-08
  128 1.00562759E-08
  129 1.00507044E-08
  130 1.00230503E-08
  131 1.00173365E-08
  132 1.00280848E-08
  133 1.00067332E-08
  134 1.00024984E-08
  135 9.98061988E-09
  136 9.99307386E-09
  137 9.98721884E-09
  138 9.96662475E-09
  139 9.96063026E-09
  140 1.00525761E-08
  141 1.00618686E-08
  142 1.00192695E-08
  143 1.00288258E-08
  144 1.00784977E-08
  145 1.01023192E-08
  146 1.00459169E-08
  147 1.00703915E-08
  148 9.98921216E-09
  149 9.99902911E-09
  150 9.96268246E-09
  151 9.97275533E-09
  152 1.00165768E-08
  153 1.00416963E-08
  154 9.99075159E-09
  155 1.00165048E-08
  156 1.01331318E-08
  157 1.01706815E-08
  158 1.01020381E-08
  159 1.01405904E-08
  160 1.02146662E-08
  161 1.02647420E-08
  162 1.01857319E-08
  163 1.02371026E-08
  164 1.00741664E-08
  165 1.01137079E-08
  166 1.00497834E-08
  167 1.00902955E-08
  168 1.01599897E-08
  169 1.02126355E-08
  170 1.01376952E-08
  171 1.01915894E-08
  172 1.03205292E-08
  173 1.03816192E-08
  174 1.02943056E-08
  175 1.03569140E-08
  176 1.04475812E-08
  177 1.05179690E-08
  178 1.04244785E-08
  179 1.04965343E-08
  180 1.02712307E-08
  181 1.03353302E-08
  182 1.02515459E-08
  183 1.03171010E-08
  184 1.04044658E-08
  185 1.04781542E-08
  186 1.03877678E-08
  187 1.04630443E-08
  188 1.05923273E-08
  189 1.06701984E-08
  190 1.05726082E-08
  191 1.06522248E-08
  192 1.07511271E-08
  193 1.08346666E-08
  194 1.07349126E-08
  195 1.08202094E-08
  196 1.05559039E-08
  197 1.06372220E-08
  198 1.05424208E-08
  199 1.06253871E-08
  200 1.07216209E-08
  201 1.08630788E-08
  202 1.07114392E-08
  203 1.08535190E-08
  204 1.09827489E-08
  205 1.10756598E-08
  206 1.09687009E-08
  207 1.10633831E-08
  208 1.11700327E-08
  209 1.12654668E-08
  210 1.11594862E-08
  211 1.12565997E-08
  212 1.09576446E-08
  213 1.10540330E-08
  214 1.09497527E-08
  215 1.10477720E-08
  216 1.11517979E-08
  217 1.12505192E-08
  218 1.11471201E-08
  219 1.12473680E-08
  220 1.13615859E-08
  221 1.14580398E-08
  222 1.13543392E-08
  223 1.14523478E-08
  224 1.15545051E-08
  225 1.16506854E-08
  226 1.15502966E-08
  227 1.16478854E-08
  228 1.13498049E-08
  229 1.14492916E-08
  230 1.13481160E-08
  231 1.14489951E-08
  232 1.15486457E-08
  233 1.16475633E-08
  234 1.15496673E-08
  235 1.16498254E-08
  236 1.17463110E-08
  237 1.18411386E-08
  238 1.17448417E-08
  239 1.18409206E-08
  240 1.19349504E-08
  241 1.20275527E-08
  242 1.19359034E-08
  243 1.20295970E-08
  244 1.17457696E-08
  245 1.18430185E-08
  246 1.17491929E-08
  247 1.18475227E-08
  248 1.19390910E-08
  249 1.20337945E-08
  250 1.19445961E-08
  251 1.20402213E-08
  252 1.21218319E-08
  253 1.22124612E-08
  254 1.23013589E-08
  255 1.23884180E-08
  256 1.21269608E-08
  257 1.22184447E-08
  258 1.21342316E-08
  259 1.22264839E-08
  260 1.23081224E-08
  261 1.23958898E-08
  262 1.23168571E-08
  263 1.24052498E-08
  264 1.24735495E-08
  265 1.25566804E-08
  266 1.26377522E-08
  267 1.27167196E-08
  268 1.24816606E-08
  269 1.25653651E-08
  270 1.24915790E-08
  271 1.25757780E-08
  272 1.26469479E-08
  273 1.27263672E-08
  274 1.26577951E-08
  275 1.27375917E-08
  276 1.27935490E-08
  277 1.28682173E-08
  278 1.29313722E-08
  279 1.29407104E-08
  280 1.30110225E-08
  281 1.28035926E-08
  282 1.28786044E-08
  283 1.28151411E-08
  284 1.28904268E-08
  285 1.29513918E-08
  286 1.30219522E-08
  287 1.29634413E-08
  288 1.30341852E-08
  289 1.30791545E-08
  290 1.31451138E-08
  291 1.31853481E-08
  292 1.32468821E-08
  293 1.30902896E-08
  294 1.31331797E-08
  295 1.31026658E-08
  296 1.31458522E-08
  297 1.31969720E-08
  298 1.32585976E-08
  299 1.32097136E-08
  300 1.32713761E-08
  301 1.33063038E-08
  302 1.33636360E-08
  303 1.34189042E-08
  304 1.34721358E-08
  305 1.33180788E-08
  306 1.33754408E-08
  307 1.33308645E-08
  308 1.33882065E-08
  309 1.34307114E-08
  310 1.34839200E-08
  311 1.34434318E-08
  312 1.34965719E-08
  313 1.35233600E-08
  314 1.35726072E-08
  315 1.36199084E-08
  316 1.36652956E-08
  317 1.35350978E-08
  318 1.35842767E-08
  319 1.35476598E-08
  320 1.35967293E-08
  321 1.36314897E-08
  322 1.36767699E-08
  323 1.36438146E-08
  324 1.36889504E-08
  325 1.37201507E-08
  326 1.37616656E-08
  327 1.37321715E-08
  328 1.37735122E-08
  329 1.38130067E-08
  330 1.38506887E-08
  331 1.38865913E-08
  332 1.08450842E-08
  333 1.10508957E-08
  334 1.09442762E-08
  335 1.08475392E-08
  336 1.09516861E-08
  337 1.08536983E-08
  338 1.06643775E-08
  339 1.07515183E-08
  340 1.06602691E-08
  341 1.05775079E-08
  342 1.04940236E-08
  343 1.05718657E-08
  344 1.04868534E-08
  345 1.07525705E-08
  346 1.06598902E-08
  347 1.07574352E-08
  348 1.06634280E-08
  349 1.05700411E-08
  350 1.04835835E-08
  351 1.05722326E-08
  352 1.04844238E-08
  353 1.04144629E-08
  354 1.03393655E-08
  355 1.04057871E-08
  356 1.03292246E-08
  357 1.02692655E-08
  358 1.02046833E-08
  359 1.02577186E-08
  360 1.01918083E-08
  361 1.04010888E-08
  362 1.03231323E-08
  363 1.04005889E-08
  364 1.03213201E-08
  365 1.02502851E-08
  366 1.01831049E-08
  367 1.02472063E-08
  368 1.01788239E-08
  369 1.01461168E-08
  370 1.00940331E-08
  371 1.01320105E-08
  372 1.00788105E-08
  373 1.00488594E-08
  374 1.00109754E-08
  375 1.00326529E-08
  376 9.99393289E-09
  377 1.01221273E-08
  378 1.00678558E-08
  379 1.01167267E-08
  380 1.00614360E-08
  381 1.00207520E-08
  382 9.98122691E-09
  383 1.00134307E-08
  384 9.97313713E-09
  385 9.98070529E-09
  386 9.95831095E-09
  387 9.96298826E-09
  388 9.94009221E-09
  389 9.94398674E-09
  390 9.93785515E-09
  391 9.92544743E-09
  392 9.91918175E-09
  393 9.94963189E-09
  394 9.92625136E-09
  395 9.94092032E-09
  396 9.91707592E-09
  397 9.91129649E-09
  398 9.90490046E-09
  399 9.90182351E-09
  400 9.89530164E-09
  401 9.93996427E-09
  402 9.95028683E-09
  403 9.92134534E-09
  404 9.93190970E-09
  405 9.96872107E-09
  406 9.99509301E-09
  407 9.95076853E-09
  408 9.97774031E-09
  409 9.90711556E-09
  410 9.91791207E-09
  411 9.89756476E-09
  412 9.90858193E-09
  413 9.93717918E-09
  414 9.96472777E-09
  415 9.92823791E-09
  416 9.95633600E-09
  417 1.00291606E-08
  418 1.00706192E-08
  419 1.00125725E-08
  420 1.00549473E-08
  421 1.01191076E-08
  422 1.01742164E-08
  423 1.01044889E-08
  424 1.01607707E-08
  425 1.00002948E-08
  426 1.00435497E-08
  427 9.99260284E-09
  428 1.00366948E-08
  429 1.00941013E-08
  430 1.01515066E-08
  431 1.00882060E-08
  432 1.01466770E-08
  433 1.02354953E-08
  434 1.03024622E-08
  435 1.02233249E-08
  436 1.02916506E-08
  437 1.03746113E-08
  438 1.04514220E-08
  439 1.03652235E-08
  440 1.04435045E-08
  441 1.02152800E-08
  442 1.02849023E-08
  443 1.02116044E-08
  444 1.02824512E-08
  445 1.03598307E-08
  446 1.04395077E-08
  447 1.03586563E-08
  448 1.04396445E-08
  449 1.05323664E-08
  450 1.06169174E-08
  451 1.05259479E-08
  452 1.06120095E-08
  453 1.07045547E-08
  454 1.08473773E-08
  455 1.07477276E-08
  456 1.08448334E-08
  457 1.05233703E-08
  458 1.06108579E-08
  459 1.05248356E-08
  460 1.06542384E-08
  461 1.07475335E-08
  462 1.08460635E-08
  463 1.07513969E-08
  464 1.08512389E-08
  465 1.09451967E-08
  466 1.10447610E-08
  467 1.09441452E-08
  468 1.10451579E-08
  469 1.11456034E-08
  470 1.12472862E-08
  471 1.11473950E-08
  472 1.12504110E-08
  473 1.09467632E-08
  474 1.10491166E-08
  475 1.09532104E-08
  476 1.10567855E-08
  477 1.11526381E-08
  478 1.12568748E-08
  479 1.11614701E-08
  480 1.12668046E-08
  481 1.13494030E-08
  482 1.14515793E-08
  483 1.13537929E-08
  484 1.14571615E-08
  485 1.15534731E-08
  486 1.16547748E-08
  487 1.15601715E-08
  488 1.16625110E-08
  489 1.13614081E-08
  490 1.14658544E-08
  491 1.13723653E-08
  492 1.14777652E-08
  493 1.15698657E-08
  494 1.16731286E-08
  495 1.15826537E-08
  496 1.16867167E-08
  497 1.17552064E-08
  498 1.18545204E-08
  499 1.17639012E-08
  500 1.18640945E-08
  501 1.19524984E-08
  502 1.20489501E-08
  503 1.19628737E-08
  504 1.20600497E-08
  505 1.17753636E-08
  506 1.18763238E-08
  507 1.17896747E-08
  508 1.18912816E-08
  509 1.19757932E-08
  510 1.20735847E-08
  511 1.19913231E-08
  512 1.20896146E-08
  513 1.21437105E-08
  514 1.22366392E-08
  515 1.21554601E-08
  516 1.22489669E-08
  517 1.23276175E-08
  518 1.24165474E-08
  519 1.23404545E-08
  520 1.24298282E-08
  521 1.21695384E-08
  522 1.22635192E-08
  523 1.21859988E-08
  524 1.22803439E-08
  525 1.23554149E-08
  526 1.24451340E-08
  527 1.23725411E-08
  528 1.24625026E-08
  529 1.25033490E-08
  530 1.25879591E-08
  531 1.25170115E-08
  532 1.26019450E-08
  533 1.26703295E-08
  534 1.27504253E-08
  535 1.26845838E-08
  536 1.27648968E-08
  537 1.25326039E-08
  538 1.26177687E-08
  539 1.25501594E-08
  540 1.26354595E-08
  541 1.27005873E-08
  542 1.27810320E-08
  543 1.27183654E-08
  544 1.27988532E-08
  545 1.28282230E-08
  546 1.29037097E-08
  547 1.28428639E-08
  548 1.29184758E-08
  549 1.29768813E-08
  550 1.30477415E-08
  551 1.29917316E-08
  552 1.30626383E-08
  553 1.28590865E-08
  554 1.29347448E-08
  555 1.28769101E-08
  556 1.29525334E-08
  557 1.30080095E-08
  558 1.30788904E-08
  559 1.30257290E-08
  560 1.30744790E-08
  561 1.30935907E-08
  562 1.31597145E-08
  563 1.31086774E-08
  564 1.31747800E-08
  565 1.32235861E-08
  566 1.32852292E-08
  567 1.32386008E-08
  568 1.33001665E-08
  569 1.31250436E-08
  570 1.31910592E-08
  571 1.31426992E-08
  572 1.32085607E-08
  573 1.32547670E-08
  574 1.33161957E-08
  575 1.32720913E-08
  576 1.33333221E-08
  577 1.33446711E-08
  578 1.34019416E-08
  579 1.33595065E-08
  580 1.34166529E-08
  581 1.34570726E-08
  582 1.35100976E-08
  583 1.34716395E-08
  584 1.35245016E-08
  585 1.33753771E-08
  586 1.34323454E-08
  587 1.33922871E-08
  588 1.34490223E-08
  589 1.34871363E-08
  590 1.35397870E-08
  591 1.35035655E-08
  592 1.35559552E-08
  593 1.35610513E-08
  594 1.36099690E-08
  595 1.35752757E-08
  596 1.36239986E-08
  597 1.36568865E-08
  598 1.37018398E-08
  599 1.36707075E-08
  600 1.37154395E-08
  601 1.35903354E-08
  602 1.36388197E-08
  603 1.36062310E-08
  604 1.36544323E-08
  605 1.36852784E-08
  606 1.37297499E-08
  607 1.37005989E-08
  608 1.37447701E-08
  609 1.37448648E-08
  610 1.37859970E-08
  611 1.37582317E-08
  612 1.37991206E-08
  613 1.38252715E-08
  614 1.38627228E-08
  615 1.38381420E-08
  616 1.38753313E-08
  617 1.37722721E-08
  618 1.38128824E-08
  619 1.37869847E-08
  620 1.38272810E-08
  621 1.38516175E-08
  622 1.38885133E-08
  623 1.38656962E-08
  624 1.39022668E-08
  625 1.38983846E-08
  626 1.39322899E-08
  627 1.39107228E-08
  628 1.39443500E-08
  629 1.39644709E-08
  630 1.39762455E-08
  631 1.40064409E-08
  632 1.39236047E-08
  633 1.39569257E-08
  634 1.39370282E-08
  635 1.39700148E-08
  636 1.39885092E-08
  637 1.40183870E-08
  638 1.40012596E-08
  639 1.40307949E-08
  640 1.40465900E-08
  641 1.40731478E-08
  642 1.40586513E-08
  643 1.40848588E-08
  644 1.41094459E-08
  645 1.41324402E-08
  646 1.12829355E-08
  647 1.16347802E-08
  648 1.15338151E-08
  649 1.14064988E-08
  650 1.13041337E-08
  651 1.14317732E-08
  652 1.13289854E-08
  653 1.11640859E-08
  654 1.10631165E-08
  655 1.11809190E-08
  656 1.10790792E-08
  657 1.09628352E-08
  658 1.08637199E-08
  659 1.09778631E-08
  660 1.08777550E-08
  661 1.12014650E-08
  662 1.10989036E-08
  663 1.12258232E-08
  664 1.11226993E-08
  665 1.09969005E-08
  666 1.08959454E-08
  667 1.10200676E-08
  668 1.09184223E-08
  669 1.07662823E-08
  670 1.06710642E-08
  671 1.07792744E-08
  672 1.06829729E-08
  673 1.05786336E-08
  674 1.04895791E-08
  675 1.05894298E-08
  676 1.04992467E-08
  677 1.07965648E-08
  678 1.06993191E-08
  679 1.08182960E-08
  680 1.07202568E-08
  681 1.06047980E-08
  682 1.05136151E-08
  683 1.06249038E-08
  684 1.05328615E-08
  685 1.04045031E-08
  686 1.03240145E-08
  687 1.04130404E-08
  688 1.03314356E-08
  689 1.02487194E-08
  690 1.01792121E-08
  691 1.02550549E-08
  692 1.01845099E-08
  693 1.04264008E-08
  694 1.03437944E-08
  695 1.04447729E-08
  696 1.03612911E-08
  697 1.02664347E-08
  698 1.01949495E-08
  699 1.02830695E-08
  700 1.02107517E-08
  701 1.01160643E-08
  702 1.00598150E-08
  703 1.01203899E-08
  704 1.00632508E-08
  705 1.00109598E-08
  706 9.96994033E-09
  707 1.00136046E-08
  708 9.97190804E-09
  709 1.01299448E-08
  710 1.00719933E-08
  711 1.01449595E-08
  712 1.00862814E-08
  713 1.00216225E-08
  714 9.97930393E-09
  715 1.00352601E-08
  716 9.99238104E-09
  717 9.93713513E-09
  718 9.91285092E-09
  719 9.93855280E-09
  720 9.91385651E-09
  721 9.89731570E-09
  722 9.89067335E-09
  723 9.89805546E-09
  724 9.89129885E-09
  725 9.94544203E-09
  726 9.92036515E-09
  727 9.95806107E-09
  728 9.93263888E-09
  729 9.90431762E-09
  730 9.89745386E-09
  731 9.91636664E-09
  732 9.90940383E-09
  733 9.89298045E-09
  734 9.90420493E-09
  735 9.89364535E-09
  736 9.90506185E-09
  737 9.92422717E-09
  738 9.95284298E-09
  739 9.92542441E-09
  740 9.95452155E-09
  741 9.89983471E-09
  742 9.91142595E-09
  743 9.91181338E-09
  744 9.92356013E-09
  745 9.93209953E-09
  746 9.96163690E-09
  747 9.94451206E-09
  748 9.97444381E-09
  749 9.98976874E-09
  750 1.00346482E-08
  751 9.99205960E-09
  752 1.00376699E-08
  753 1.00870607E-08
  754 1.01465307E-08
  755 1.00909175E-08
  756 1.01513109E-08
  757 9.99973463E-09
  758 1.00460120E-08
  759 1.00130426E-08
  760 1.00599161E-08
  761 1.01000202E-08
  762 1.01612526E-08
  763 1.01146023E-08
  764 1.01765799E-08
  765 1.02125376E-08
  766 1.02845267E-08
  767 1.02183131E-08
  768 1.02913519E-08
  769 1.03619192E-08
  770 1.04441226E-08
  771 1.03698317E-08
  772 1.04531432E-08
  773 1.02291558E-08
  774 1.03031415E-08
  775 1.02452802E-08
  776 1.03200993E-08
  777 1.03825974E-08
  778 1.04668987E-08
  779 1.04004094E-08
  780 1.05173201E-08
  781 1.05305403E-08
  782 1.06611153E-08
  783 1.05762756E-08
  784 1.06725260E-08
  785 1.07594941E-08
  786 1.08605241E-08
  787 1.07719935E-08
  788 1.08740755E-08
  789 1.05914157E-08
  790 1.06886408E-08
  791 1.06115687E-08
  792 1.07096181E-08
  793 1.07890533E-08
  794 1.08920398E-08
  795 1.08108204E-08
  796 1.09145522E-08
  797 1.09636399E-08
  798 1.10683063E-08
  799 1.09781965E-08
  800 1.10838128E-08
  801 1.11740218E-08
  802 1.12803206E-08
  803 1.11904160E-08
  804 1.12975352E-08
  805 1.09970154E-08
  806 1.11034289E-08
  807 1.10202207E-08
  808 1.11272679E-08
  809 1.12107660E-08
  810 1.13185515E-08
  811 1.12351746E-08
  812 1.13434624E-08
  813 1.13867748E-08
  814 1.14929942E-08
  815 1.14047388E-08
  816 1.15116346E-08
  817 1.15986270E-08
  818 1.17033583E-08
  819 1.16178696E-08
  820 1.17231290E-08
  821 1.14263509E-08
  822 1.15337706E-08
  823 1.14516947E-08
  824 1.15594770E-08
  825 1.16404572E-08
  826 1.17460966E-08
  827 1.16664563E-08
  828 1.17723199E-08
  829 1.18069092E-08
  830 1.19090351E-08
  831 1.18271351E-08
  832 1.19296451E-08
  833 1.20095238E-08
  834 1.21081932E-08
  835 1.20304492E-08
  836 1.21293683E-08
  837 1.18504127E-08
  838 1.19531649E-08
  839 1.18767937E-08
  840 1.19796398E-08
  841 1.20541464E-08
  842 1.21531812E-08
  843 1.20806546E-08
  844 1.21796658E-08
  845 1.22048892E-08
  846 1.22994834E-08
  847 1.22262518E-08
  848 1.23209747E-08
  849 1.23918706E-08
  850 1.24819668E-08
  851 1.24134357E-08
  852 1.25035547E-08
  853 1.22501224E-08
  854 1.23448488E-08
  855 1.22765300E-08
  856 1.23711302E-08
  857 1.24372630E-08
  858 1.25272887E-08
  859 1.24633729E-08
  860 1.25531860E-08
  861 1.25697069E-08
  862 1.26550424E-08
  863 1.25912703E-08
  864 1.26765380E-08
  865 1.27379399E-08
  866 1.28183790E-08
  867 1.27593282E-08
  868 1.28396240E-08
  869 1.26148687E-08
  870 1.26999622E-08
  871 1.26405159E-08
  872 1.27253258E-08
  873 1.27825433E-08
  874 1.28625985E-08
  875 1.28075934E-08
  876 1.28873088E-08
  877 1.28963504E-08
  878 1.29718549E-08
  879 1.29174196E-08
  880 1.29927190E-08
  881 1.30449013E-08
  882 1.30936325E-08
  883 1.30439894E-08
  884 1.31141616E-08
  885 1.29401257E-08
  886 1.30151319E-08
  887 1.29644730E-08
  888 1.30390962E-08
  889 1.30662303E-08
  890 1.31360691E-08
  891 1.30899301E-08
  892 1.31593549E-08
  893 1.31616518E-08
  894 1.32272904E-08
  895 1.31819060E-08
  896 1.32472513E-08
  897 1.32905783E-08
  898 1.33515490E-08
  899 1.33102299E-08
  900 1.33708774E-08
  901 1.32034634E-08
  902 1.32684440E-08
  903 1.32263225E-08
  904 1.32908662E-08
  905 1.33310457E-08
  906 1.33913059E-08
  907 1.33530225E-08
  908 1.34128307E-08
  909 1.34102386E-08
  910 1.34666849E-08
  911 1.34292317E-08
  912 1.34853324E-08
  913 1.35209273E-08
  914 1.35730060E-08
  915 1.35392205E-08
  916 1.35909374E-08
  917 1.34492643E-08
  918 1.35049622E-08
  919 1.34703320E-08
  920 1.35255692E-08
  921 1.35584417E-08
  922 1.36097457E-08
  923 1.35785857E-08
  924 1.36294254E-08
  925 1.36229617E-08
  926 1.36708352E-08
  927 1.36405251E-08
  928 1.36880255E-08
  929 1.37166672E-08
  930 1.37604980E-08
  931 1.37334802E-08
  932 1.37769303E-08
  933 1.36589172E-08
  934 1.37059989E-08
  935 1.36781322E-08
  936 1.37247498E-08
  937 1.37510335E-08
  938 1.37940624E-08
  939 1.37693211E-08
  940 1.38118883E-08
  941 1.38023672E-08
  942 1.38423137E-08
  943 1.38184160E-08
  944 1.38579769E-08
  945 1.38803753E-08
  946 1.39165890E-08
  947 1.38956511E-08
  948 1.39314760E-08
  949 1.38351266E-08
  950 1.38742659E-08
  951 1.38524929E-08
  952 1.38911749E-08
  953 1.39115190E-08
  954 1.39469233E-08
  955 1.39279731E-08
  956 1.39629254E-08
  957 1.39509904E-08
  958 1.39836143E-08
  959 1.39654876E-08
  960 1.39977206E-08
  961 1.40144940E-08
  962 1.40436615E-08
  963 1.40282085E-08
  964 1.40569835E-08
  965 1.39805151E-08
  966 1.40123292E-08
  967 1.39960677E-08
  968 1.40274349E-08
  969 1.40423990E-08
  970 1.40707567E-08
  971 1.40570605E-08
  972 1.40849763E-08
  973 1.40711479E-08
  974 1.40969829E-08
  975 1.40840765E-08
  976 1.41095170E-08
  977 1.41211951E-08
  978 1.41438117E-08
  979 1.41333335E-08
  980 1.41555531E-08
  981 1.40974329E-08
  982 1.41224572E-08
  983 1.41112129E-08
  984 1.41357994E-08
  985 1.41458576E-08
  986 1.41676611E-08
  987 1.41587636E-08
  988 1.41801322E-08
  989 1.41648593E-08
  990 1.41843632E-08
  991 1.41762020E-08
  992 1.41953052E-08
  993 1.42128868E-08
  994 1.42289699E-08
  995 1.41878935E-08
  996 1.42065793E-08
  997 1.41999303E-08
  998 1.42181824E-08
  999 1.42237423E-08
  1000 1.42394051E-08
  1001 1.42349114E-08
  1002 1.42501396E-08
  1003 1.42535898E-08
  1004 1.42663175E-08
  1005 1.42638886E-08
  1006 1.42761789E-08
  1007 1.42870307E-08
  1008 1.42964636E-08
  1009 1.18936959E-08
  1010 1.17959002E-08
  1011 1.19288333E-08
  1012 1.18313711E-08
  1013 1.19669669E-08
  1014 1.18700076E-08
  1015 1.16639275E-08
  1016 1.15628428E-08
  1017 1.16963599E-08
  1018 1.15953237E-08
  1019 1.14606135E-08
  1020 1.13575695E-08
  1021 1.14930789E-08
  1022 1.13899534E-08
  1023 1.17321109E-08
  1024 1.16312980E-08
  1025 1.17712027E-08
  1026 1.16707934E-08
  1027 1.15292164E-08
  1028 1.14261916E-08
  1029 1.15690600E-08
  1030 1.14663248E-08
  1031 1.12540820E-08
  1032 1.11505644E-08
  1033 1.12863173E-08
  1034 1.11825840E-08
  1035 1.10474727E-08
  1036 1.09453047E-08
  1037 1.10792108E-08
  1038 1.09766978E-08
  1039 1.13225918E-08
  1040 1.12188296E-08
  1041 1.13629536E-08
  1042 1.12593571E-08
  1043 1.11153624E-08
  1044 1.10126918E-08
  1045 1.11559920E-08
  1046 1.10533598E-08
  1047 1.08445980E-08
  1048 1.07459273E-08
  1049 1.08755866E-08
  1050 1.07764573E-08
  1051 1.06498999E-08
  1052 1.05571502E-08
  1053 1.06799241E-08
  1054 1.05866298E-08
  1055 1.09113619E-08
  1056 1.08119571E-08
  1057 1.09520065E-08
  1058 1.08525190E-08
  1059 1.07150971E-08
  1060 1.06214321E-08
  1061 1.07555214E-08
  1062 1.06616692E-08
  1063 1.04683323E-08
  1064 1.03841120E-08
  1065 1.04972388E-08
  1066 1.04124280E-08
  1067 1.03051566E-08
  1068 1.02321239E-08
  1069 1.03328772E-08
  1070 1.02592576E-08
  1071 1.05316347E-08
  1072 1.04463919E-08
  1073 1.05716423E-08
  1074 1.04861359E-08
  1075 1.03663944E-08
  1076 1.02923253E-08
  1077 1.04058502E-08
  1078 1.03314784E-08
  1079 1.01656509E-08
  1080 1.01063407E-08
  1081 1.01922197E-08
  1082 1.01323805E-08
  1083 1.00547505E-08
  1084 1.00113789E-08
  1085 1.00803104E-08
  1086 1.00365207E-08
  1087 1.02248475E-08
  1088 1.01645906E-08
  1089 1.02636947E-08
  1090 1.02031395E-08
  1091 1.01121373E-08
  1092 1.00680103E-08
  1093 1.01504067E-08
  1094 1.01060292E-08
  1095 9.97665469E-09
  1096 9.95092636E-09
  1097 1.00014513E-08
  1098 9.97545982E-09
  1099 9.93445362E-09
  1100 9.92740084E-09
  1101 9.95881325E-09
  1102 9.95168057E-09
  1103 1.00326597E-08
  1104 1.00064520E-08
  1105 1.00704666E-08
  1106 1.00440932E-08
  1107 9.98966075E-09
  1108 9.98245931E-09
  1109 1.00271888E-08
  1110 1.00199307E-08
  1111 9.92983297E-09
  1112 9.94171403E-09
  1113 9.95412875E-09
  1114 9.96612098E-09
  1115 9.96290822E-09
  1116 9.99318375E-09
  1117 9.98751803E-09
  1118 1.00180820E-08
  1119 9.98491651E-09
  1120 9.99699494E-09
  1121 1.00223896E-08
  1122 1.00345274E-08
  1123 1.00185522E-08
  1124 1.00493448E-08
  1125 1.00561991E-08
  1126 1.00871560E-08
  1127 1.00322189E-08
  1128 1.00796105E-08
  1129 1.00574830E-08
  1130 1.01053075E-08
  1131 1.01348838E-08
  1132 1.01975038E-08
  1133 1.01610689E-08
  1134 1.02242196E-08
  1135 1.00890351E-08
  1136 1.01372003E-08
  1137 1.01270537E-08
  1138 1.01754609E-08
  1139 1.01933431E-08
  1140 1.02569040E-08
  1141 1.02318707E-08
  1142 1.02957130E-08
  1143 1.02668874E-08
  1144 1.03424160E-08
  1145 1.02941630E-08
  1146 1.03702670E-08
  1147 1.04234474E-08
  1148 1.05419514E-08
  1149 1.04518762E-08
  1150 1.05720594E-08
  1151 1.03272744E-08
  1152 1.04038098E-08
  1153 1.03663685E-08
  1154 1.04431820E-08
  1155 1.05163599E-08
  1156 1.06077773E-08
  1157 1.05576033E-08
  1158 1.06492174E-08
  1159 1.06368911E-08
  1160 1.07356026E-08
  1161 1.06675229E-08
  1162 1.07667234E-08
  1163 1.08374278E-08
  1164 1.09417348E-08
  1165 1.08689939E-08
  1166 1.09736951E-08
  1167 1.07035866E-08
  1168 1.08030922E-08
  1169 1.07451843E-08
  1170 1.08448014E-08
  1171 1.09056198E-08
  1172 1.10105240E-08
  1173 1.09473883E-08
  1174 1.10522950E-08
  1175 1.10479235E-08
  1176 1.11554305E-08
  1177 1.10802209E-08
  1178 1.11880040E-08
  1179 1.12637328E-08
  1180 1.13723494E-08
  1181 1.12965182E-08
  1182 1.14052812E-08
  1183 1.11171944E-08
  1184 1.12250603E-08
  1185 1.11589082E-08
  1186 1.12666555E-08
  1187 1.13335942E-08
  1188 1.14423131E-08
  1189 1.13750087E-08
  1190 1.14834855E-08
  1191 1.14808426E-08
  1192 1.15888179E-08
  1193 1.15138551E-08
  1194 1.16218462E-08
  1195 1.16959234E-08
  1196 1.18018483E-08
  1197 1.17289042E-08
  1198 1.18347207E-08
  1199 1.15507798E-08
  1200 1.16586022E-08
  1201 1.15916503E-08
  1202 1.16991133E-08
  1203 1.17654325E-08
  1204 1.18709653E-08
  1205 1.18055299E-08
  1206 1.19105983E-08
  1207 1.19063209E-08
  1208 1.20091067E-08
  1209 1.19390273E-08
  1210 1.20415928E-08
  1211 1.21100053E-08
  1212 1.22088483E-08
  1213 1.21422208E-08
  1214 1.22407469E-08
  1215 1.19749356E-08
  1216 1.20771162E-08
  1217 1.20140574E-08
  1218 1.21156842E-08
  1219 1.21773147E-08
  1220 1.22753712E-08
  1221 1.22152909E-08
  1222 1.23127217E-08
  1223 1.23054965E-08
  1224 1.23998368E-08
  1225 1.23370360E-08
  1226 1.24309791E-08
  1227 1.24917798E-08
  1228 1.25812574E-08
  1229 1.25224910E-08
  1230 1.26115077E-08
  1231 1.23711545E-08
  1232 1.24645602E-08
  1233 1.24078501E-08
  1234 1.25005757E-08
  1235 1.25555072E-08
  1236 1.26439350E-08
  1237 1.25908215E-08
  1238 1.26785312E-08
  1239 1.26682200E-08
  1240 1.27526345E-08
  1241 1.26979833E-08
  1242 1.27818884E-08
  1243 1.28344821E-08
  1244 1.29137564E-08
  1245 1.28632077E-08
  1246 1.29419380E-08
  1247 1.27298020E-08
  1248 1.28130822E-08
  1249 1.27636665E-08
  1250 1.28462049E-08
  1251 1.28937636E-08
  1252 1.29718458E-08
  1253 1.29261375E-08
  1254 1.30034669E-08
  1255 1.29904614E-08
  1256 1.30436608E-08
  1257 1.30180863E-08
  1258 1.30708393E-08
  1259 1.31150862E-08
  1260 1.31840152E-08
  1261 1.31416922E-08
  1262 1.32100431E-08
  1263 1.30268198E-08
  1264 1.30995455E-08
  1265 1.30577909E-08
  1266 1.31297659E-08
  1267 1.31697382E-08
  1268 1.32374279E-08
  1269 1.31992100E-08
  1270 1.32661554E-08
  1271 1.32504790E-08
  1272 1.33145125E-08
  1273 1.32759250E-08
  1274 1.33393749E-08
  1275 1.33761543E-08
  1276 1.34354453E-08
  1277 1.34004328E-08
  1278 1.34591411E-08
  1279 1.33026496E-08
  1280 1.33654420E-08
  1281 1.33306386E-08
  1282 1.33926997E-08
  1283 1.34258465E-08
  1284 1.34839065E-08
  1285 1.34523812E-08
  1286 1.35097278E-08
  1287 1.34924282E-08
  1288 1.35471467E-08
  1289 1.35155436E-08
  1290 1.35696854E-08
  1291 1.35996455E-08
  1292 1.36499694E-08
  1293 1.36216118E-08
  1294 1.36713684E-08
  1295 1.35396672E-08
  1296 1.35931742E-08
  1297 1.35647850E-08
  1298 1.36175995E-08
  1299 1.36444736E-08
  1300 1.36936117E-08
  1301 1.36682178E-08
  1302 1.37166863E-08
  1303 1.36981630E-08
  1304 1.37442706E-08
  1305 1.37190005E-08
  1306 1.37645527E-08
  1307 1.37883358E-08
  1308 1.38304010E-08
  1309 1.38080689E-08
  1310 1.38495919E-08
  1311 1.37406339E-08
  1312 1.37855854E-08
  1313 1.37630510E-08
  1314 1.38073570E-08
  1315 1.38285103E-08
  1316 1.38694513E-08
  1317 1.38496484E-08
  1318 1.38899681E-08
  1319 1.38705080E-08
  1320 1.39086970E-08
  1321 1.38891636E-08
  1322 1.39268242E-08
  1323 1.39450070E-08
  1324 1.39794756E-08
  1325 1.39626128E-08
  1326 1.39965667E-08
  1327 1.39084503E-08
  1328 1.39455476E-08
  1329 1.39283575E-08
  1330 1.39648569E-08
  1331 1.39807819E-08
  1332 1.40141904E-08
  1333 1.39995045E-08
  1334 1.40323374E-08
  1335 1.40121390E-08
  1336 1.40430318E-08
  1337 1.40287220E-08
  1338 1.40591132E-08
  1339 1.40721873E-08
  1340 1.40996370E-08
  1341 1.40877729E-08
  1342 1.41147327E-08
  1343 1.40458089E-08
  1344 1.40756714E-08
  1345 1.40633909E-08
  1346 1.40926985E-08
  1347 1.41038105E-08
  1348 1.41302569E-08
  1349 1.41202921E-08
  1350 1.41462023E-08
  1351 1.41254112E-08
  1352 1.41495388E-08
  1353 1.41400224E-08
  1354 1.41636702E-08
  1355 1.41720471E-08
  1356 1.41929622E-08
  1357 1.41857031E-08
  1358 1.42061467E-08
  1359 1.41550401E-08
  1360 1.41781877E-08
  1361 1.41704576E-08
  1362 1.41930853E-08
  1363 1.41997263E-08
  1364 1.42196808E-08
  1365 1.42141111E-08
  1366 1.42335593E-08
  1367 1.42123090E-08
  1368 1.42301111E-08
  1369 1.42250253E-08
  1370 1.42423620E-08
  1371 1.42463913E-08
  1372 1.42611711E-08
  1373 1.42581788E-08
  1374 1.42724967E-08
  1375 1.42380748E-08
  1376 1.42549309E-08
  1377 1.42514530E-08
  1378 1.42678138E-08
  1379 1.42702704E-08
  1380 1.42841135E-08
  1381 1.42826623E-08
  1382 1.42960182E-08
  1383 1.42744714E-08
  1384 1.42863123E-08
  1385 1.42853360E-08
  1386 1.42967160E-08
  1387 1.42967132E-08
  1388 1.43056932E-08
  1389 1.43066554E-08
  1390 1.43151727E-08
  1391 1.42964798E-08
  1392 1.43073878E-08
  1393 1.43079000E-08
  1394 1.43183257E-08
  1395 1.43168557E-08
  1396 1.43249010E-08
  1397 1.43273125E-08
  1398 1.43348772E-08
  1399 1.43132710E-08
  1400 1.43222858E-08
  1401 1.43280124E-08
  1402 1.43323705E-08
  1403 1.43315410E-08
  1404 1.43367926E-08