# File generated by Flopy version 3.9.1 on 04/13/2026 at 16:45:40.
BEGIN options
  SAVE_FLOWS
END options

BEGIN dimensions
  MAXBOUND  59187
END dimensions

BEGIN period  1
  86578 -0.00000000E+00
  86580 -0.00000000E+00
  86581 -0.00000000E+00
  86587 -0.00000000E+00
  86589 -0.00000000E+00
  86590 -0.00000000E+00
  86592 -0.00000000E+00
  86593 -0.00000000E+00
  86604 -0.00000000E+00
  86642 -2.05293202E-04
  86648 -3.69527763E-04
  87366 -0.00000000E+00
  87368 -0.00000000E+00
  87369 -0.00000000E+00
  87370 -0.00000000E+00
  87371 -3.28469122E-04
  87372 -3.28469122E-04
  87374 -0.00000000E+00
  87376 -0.00000000E+00
  87377 -3.28469122E-04
  87378 -3.28469122E-04
  87379 -3.28469122E-04
  87380 -3.28469122E-04
  87381 -0.00000000E+00
  87382 -0.00000000E+00
  87383 -0.00000000E+00
  87384 -0.00000000E+00
  87387 -0.00000000E+00
  87389 -0.00000000E+00
  87390 -0.00000000E+00
  87391 -0.00000000E+00
  87392 -0.00000000E+00
  87393 -0.00000000E+00
  87394 -0.00000000E+00
  87395 -0.00000000E+00
  87396 -0.00000000E+00
  87398 -0.00000000E+00
  87400 -0.00000000E+00
  87401 -0.00000000E+00
  87402 -0.00000000E+00
  87403 -0.00000000E+00
  87404 -0.00000000E+00
  87409 -0.00000000E+00
  87410 -0.00000000E+00
  87413 -0.00000000E+00
  87414 -0.00000000E+00
  87415 -0.00000000E+00
  87416 -0.00000000E+00
  87417 -0.00000000E+00
  87418 -0.00000000E+00
  87419 -0.00000000E+00
  87420 -0.00000000E+00
  87421 -0.00000000E+00
  87422 -0.00000000E+00
  87424 -0.00000000E+00
  87425 -0.00000000E+00
  87426 -0.00000000E+00
  87427 -0.00000000E+00
  87428 -0.00000000E+00
  87439 -0.00000000E+00
  87461 -0.00000000E+00
  87462 -0.00000000E+00
  87463 -0.00000000E+00
  87464 -0.00000000E+00
  87469 -0.00000000E+00
  87470 -0.00000000E+00
  87471 -0.00000000E+00
  87472 -0.00000000E+00
  87505 -6.69255837E-03
  87506 -2.95622210E-03
  87507 -3.28469122E-04
  87508 -6.69255837E-03
  87509 -2.58669434E-03
  87517 -3.28469122E-04
  87521 -3.28469122E-04
  87522 -1.23175921E-04
  87523 -3.28469122E-04
  87524 -3.28469122E-04
  87525 -1.14964193E-03
  87526 -3.28469122E-04
  87527 -1.60949870E-02
  87528 -3.28469122E-04
  87529 -1.60949870E-02
  87530 -1.60949870E-02
  87531 -3.28469122E-04
  87532 -1.60949870E-02
  87533 -1.14964193E-03
  87534 -2.17610794E-03
  87535 -1.60949870E-02
  87536 -2.86178723E-02
  87537 -2.17610794E-03
  87538 -3.53104307E-02
  87539 -3.73633627E-03
  87541 -2.86178723E-02
  87542 -9.80069744E-02
  87543 -3.53104307E-02
  87544 -1.04945885E-01
  87545 -2.75092890E-03
  87546 -3.69527763E-04
  88282 -0.00000000E+00
  88283 -0.00000000E+00
  88285 -0.00000000E+00
  88326 -0.00000000E+00
  88327 -0.00000000E+00
  88328 -0.00000000E+00
  88329 -0.00000000E+00
  88330 -0.00000000E+00
  88332 -0.00000000E+00
  88333 -1.23175921E-04
  88334 -0.00000000E+00
  88335 -0.00000000E+00
  88338 -0.00000000E+00
  88339 -1.23175921E-04
  88340 -0.00000000E+00
  88341 -1.23175921E-04
  88344 -1.23175921E-04
  88348 -2.05293202E-04
  88349 -0.00000000E+00
  88350 -1.23175921E-04
  88351 -2.05293202E-04
  88352 -1.23175921E-04
  88353 -2.05293202E-04
  88354 -2.05293202E-04
  88355 -0.00000000E+00
  88356 -2.05293202E-04
  88357 -0.00000000E+00
  88363 -8.21172806E-05
  88374 -8.21172806E-05
  88375 -0.00000000E+00
  88376 -8.21172806E-05
  88377 -0.00000000E+00
  88378 -0.00000000E+00
  88379 -0.00000000E+00
  88380 -0.00000000E+00
  88381 -0.00000000E+00
  88383 -0.00000000E+00
  88385 -0.00000000E+00
  88386 -0.00000000E+00
  88387 -0.00000000E+00
  88388 -0.00000000E+00
  88389 -0.00000000E+00
  88390 -0.00000000E+00
  88391 -3.28469122E-04
  88392 -0.00000000E+00
  88393 -0.00000000E+00
  88394 -3.28469122E-04
  88395 -1.14964193E-03
  88396 -0.00000000E+00
  88397 -2.87410482E-04
  88398 -0.00000000E+00
  88399 -0.00000000E+00
  88400 -0.00000000E+00
  88401 -0.00000000E+00
  88402 -0.00000000E+00
  88403 -2.87410482E-04
  88404 -0.00000000E+00
  88405 -2.87410482E-04
  88406 -1.14964193E-03
  88407 -2.17610794E-03
  88408 -2.87410482E-04
  88409 -1.97081473E-03
  88410 -2.17610794E-03
  88411 -3.53104307E-02
  88412 -1.97081473E-03
  88413 -3.44892579E-03
  88414 -2.87410482E-04
  88415 -1.97081473E-03
  88416 -2.87410482E-04
  88417 -1.97081473E-03
  88418 -1.97081473E-03
  88419 -3.44892579E-03
  88420 -1.97081473E-03
  88421 -3.44892579E-03
  88422 -0.00000000E+00
  88423 -0.00000000E+00
  88424 -0.00000000E+00
  88425 -0.00000000E+00
  88426 -0.00000000E+00
  88427 -7.80114166E-04
  88428 -0.00000000E+00
  88429 -7.80114166E-04
  88430 -0.00000000E+00
  88431 -0.00000000E+00
  88432 -0.00000000E+00
  88433 -0.00000000E+00
  88434 -0.00000000E+00
  88435 -7.80114166E-04
  88436 -0.00000000E+00
  88437 -7.80114166E-04
  88438 -7.80114166E-04
  88439 -1.97081473E-03
  88440 -7.80114166E-04
  88441 -1.97081473E-03
  88442 -1.97081473E-03
  88443 -5.46901089E-02
  88444 -1.97081473E-03
  88445 -5.46901089E-02
  88446 -7.80114166E-04
  88447 -1.97081473E-03
  88448 -7.80114166E-04
  88449 -4.27009859E-03
  88450 -1.97081473E-03
  88451 -5.46901089E-02
  88452 -4.27009859E-03
  88453 -7.92431758E-03
  88454 -3.53104307E-02
  88455 -1.04945885E-01
  88456 -3.44892579E-03
  88457 -3.44892579E-03
  88458 -3.44892579E-03
  88459 -3.44892579E-03
  88460 -4.43433315E-02
  88461 -9.15607679E-03
  88462 -5.46901089E-02
  88463 -5.46901089E-02
  88464 -5.46901089E-02
  88465 -5.46901089E-02
  88466 -4.43433315E-02
  88467 -4.43433315E-02
  88468 -4.43433315E-02
  88469 -4.43433315E-02
  88470 -5.46901089E-02
  88471 -5.46901089E-02
  88472 -7.92431758E-03
  88473 -7.92431758E-03
  88474 -4.43433315E-02
  88475 -4.43433315E-02
  88476 -2.01187338E-03
  88477 -2.01187338E-03
  88478 -3.28469122E-02
  88479 -4.02374675E-03
  88480 -2.29928386E-03
  88481 -9.85407367E-04
  88482 -1.06752465E-03
  88483 -4.10586403E-04
  88484 -7.80114166E-04
  89064 -8.21172806E-05
  89065 -1.23175921E-04
  89068 -1.23175921E-04
  89086 -0.00000000E+00
  89087 -8.21172806E-05
  89089 -8.21172806E-05
  89090 -8.21172806E-05
  89091 -1.23175921E-04
  89092 -8.21172806E-05
  89093 -1.23175921E-04
  89095 -8.21172806E-05
  89097 -0.00000000E+00
  89098 -8.21172806E-05
  89099 -1.23175921E-04
  89100 -0.00000000E+00
  89101 -0.00000000E+00
  89134 -1.23175921E-04
  89136 -1.23175921E-04
  89137 -8.21172806E-05
  89140 -8.21172806E-05
  89141 -1.64234561E-04
  89142 -1.23175921E-04
  89143 -8.21172806E-05
  89144 -0.00000000E+00
  89145 -1.23175921E-04
  89146 -8.21172806E-05
  89147 -1.64234561E-04
  89148 -1.23175921E-04
  89149 -0.00000000E+00
  89152 -1.64234561E-04
  89153 -1.64234561E-04
  89156 -0.00000000E+00
  89158 -1.64234561E-04
  89159 -1.64234561E-04
  89160 -0.00000000E+00
  89161 -0.00000000E+00
  89162 -0.00000000E+00
  89163 -0.00000000E+00
  89164 -0.00000000E+00
  89165 -0.00000000E+00
  89206 -0.00000000E+00
  89207 -0.00000000E+00
  89208 -1.23175921E-04
  89209 -1.23175921E-04
  89210 -1.23175921E-04
  89211 -1.23175921E-04
  89212 -1.64234561E-04
  89213 -1.64234561E-04
  89310 -0.00000000E+00
  89311 -0.00000000E+00
  89312 -0.00000000E+00
  89313 -0.00000000E+00
  89314 -0.00000000E+00
  89315 -0.00000000E+00
  89316 -0.00000000E+00
  89317 -0.00000000E+00
  89318 -0.00000000E+00
  89319 -0.00000000E+00
  89320 -0.00000000E+00
  89321 -0.00000000E+00
  89322 -0.00000000E+00
  89323 -0.00000000E+00
  89324 -0.00000000E+00
  89325 -0.00000000E+00
  89339 -0.00000000E+00
  89341 -0.00000000E+00
  89342 -0.00000000E+00
  89343 -0.00000000E+00
  89344 -0.00000000E+00
  89345 -0.00000000E+00
  89346 -0.00000000E+00
  89347 -0.00000000E+00
  89348 -0.00000000E+00
  89349 -0.00000000E+00
  89350 -0.00000000E+00
  89351 -0.00000000E+00
  89352 -0.00000000E+00
  89353 -2.87410482E-04
  89354 -0.00000000E+00
  89355 -0.00000000E+00
  89356 -2.87410482E-04
  89357 -1.23175921E-04
  89358 -0.00000000E+00
  89359 -0.00000000E+00
  89360 -0.00000000E+00
  89361 -0.00000000E+00
  89362 -0.00000000E+00
  89363 -7.80114166E-04
  89364 -0.00000000E+00
  89365 -7.80114166E-04
  89366 -0.00000000E+00
  89367 -1.23175921E-04
  89368 -0.00000000E+00
  89369 -1.23175921E-04
  89370 -1.23175921E-04
  89371 -1.23175921E-04
  89372 -1.23175921E-04
  89373 -1.23175921E-04
  89374 -7.80114166E-04
  89375 -4.27009859E-03
  89376 -7.80114166E-04
  89377 -4.27009859E-03
  89378 -4.27009859E-03
  89379 -7.92431758E-03
  89380 -4.27009859E-03
  89381 -7.92431758E-03
  89382 -1.23175921E-04
  89383 -5.09127140E-03
  89384 -1.23175921E-04
  89385 -5.09127140E-03
  89386 -5.09127140E-03
  89387 -1.02646601E-03
  89388 -5.09127140E-03
  89389 -1.02646601E-03
  89390 -0.00000000E+00
  89391 -1.23175921E-03
  89392 -0.00000000E+00
  89393 -1.23175921E-03
  89394 -1.23175921E-03
  89395 -5.58397508E-03
  89396 -1.23175921E-03
  89397 -5.58397508E-03
  89398 -0.00000000E+00
  89399 -1.23175921E-03
  89400 -1.23175921E-04
  89401 -9.44348727E-04
  89402 -1.23175921E-03
  89403 -5.58397508E-03
  89404 -9.44348727E-04
  89405 -1.64234561E-04
  89406 -5.58397508E-03
  89407 -3.32574986E-03
  89408 -5.58397508E-03
  89409 -3.32574986E-03
  89410 -3.32574986E-03
  89411 -8.62231446E-04
  89412 -3.32574986E-03
  89413 -8.62231446E-04
  89414 -5.58397508E-03
  89415 -3.32574986E-03
  89416 -1.64234561E-04
  89417 -8.21172806E-04
  89418 -3.32574986E-03
  89419 -8.62231446E-04
  89420 -8.21172806E-04
  89421 -2.05293202E-04
  89422 -7.92431758E-03
  89423 -7.92431758E-03
  89424 -7.92431758E-03
  89425 -7.92431758E-03
  89426 -2.01187338E-03
  89427 -2.01187338E-03
  89428 -2.01187338E-03
  89429 -2.01187338E-03
  89430 -1.02646601E-03
  89431 -1.02646601E-03
  89432 -1.02646601E-03
  89433 -1.02646601E-03
  89434 -9.03290087E-04
  89435 -9.03290087E-04
  89436 -9.03290087E-04
  89437 -9.03290087E-04
  89438 -2.29928386E-03
  89439 -2.29928386E-03
  89440 -2.29928386E-03
  89441 -2.29928386E-03
  89442 -9.85407367E-04
  89443 -6.97996885E-04
  89444 -6.97996885E-04
  89445 -6.97996885E-04
  89446 -6.97996885E-04
  89447 -3.28469122E-04
  89448 -3.28469122E-04
  89449 -3.28469122E-04
  89450 -3.28469122E-04
  89451 -8.62231446E-04
  89452 -8.62231446E-04
  89453 -8.62231446E-04
  89454 -8.62231446E-04
  89455 -0.00000000E+00
  89456 -0.00000000E+00
  89457 -0.00000000E+00
  89458 -0.00000000E+00
  89459 -8.62231446E-04
  89460 -8.62231446E-04
  89461 -2.05293202E-04
  89462 -2.05293202E-04
  89463 -0.00000000E+00
  89464 -0.00000000E+00
  89465 -0.00000000E+00
  89466 -0.00000000E+00
  89467 -0.00000000E+00
  89468 -0.00000000E+00
  89469 -0.00000000E+00
  89470 -0.00000000E+00
  89471 -2.46351842E-04
  89472 -2.46351842E-04
  89473 -2.46351842E-04
  89474 -2.46351842E-04
  89475 -0.00000000E+00
  89476 -0.00000000E+00
  89477 -0.00000000E+00
  89478 -0.00000000E+00
  89479 -2.46351842E-04
  89480 -2.46351842E-04
  89481 -0.00000000E+00
  89482 -0.00000000E+00
  89483 -2.75092890E-03
  89484 -2.58669434E-03
  89485 -8.21172806E-05
  89486 -2.46351842E-04
  89488 -2.46351842E-04
  89489 -2.46351842E-04
  89490 -2.46351842E-04
  89491 -2.46351842E-04
  89492 -1.23175921E-04
  89493 -2.46351842E-04
  89494 -2.46351842E-04
  89495 -0.00000000E+00
  89496 -0.00000000E+00
  89497 -1.23175921E-04
  89498 -1.23175921E-04
  89499 -7.39055526E-04
  89500 -7.39055526E-04
  89501 -2.38140114E-03
  90023 -0.00000000E+00
  90025 -0.00000000E+00
  90026 -0.00000000E+00
  90027 -0.00000000E+00
  90028 -0.00000000E+00
  90029 -0.00000000E+00
  90034 -4.10586403E-05
  90035 -1.23175921E-04
  90036 -4.10586403E-05
  90037 -1.23175921E-04
  90059 -1.23175921E-04
  90061 -0.00000000E+00
  90070 -0.00000000E+00
  90071 -1.23175921E-04
  90072 -0.00000000E+00
  90073 -1.23175921E-04
  90074 -1.23175921E-04
  90075 -0.00000000E+00
  90076 -1.23175921E-04
  90077 -0.00000000E+00
  90078 -1.23175921E-04
  90079 -2.05293202E-04
  90080 -1.23175921E-04
  90081 -2.05293202E-04
  90082 -2.05293202E-04
  90083 -0.00000000E+00
  90084 -2.05293202E-04
  90085 -0.00000000E+00
  90086 -0.00000000E+00
  90087 -0.00000000E+00
  90088 -0.00000000E+00
  90089 -0.00000000E+00
  90090 -0.00000000E+00
  90091 -0.00000000E+00
  90092 -0.00000000E+00
  90093 -0.00000000E+00
  90094 -0.00000000E+00
  90095 -0.00000000E+00
  90096 -0.00000000E+00
  90097 -0.00000000E+00
  90098 -4.10586403E-05
  90099 -4.10586403E-05
  90100 -4.10586403E-05
  90101 -4.10586403E-05
  90102 -1.23175921E-04
  90103 -2.05293202E-04
  90104 -0.00000000E+00
  90105 -4.10586403E-05
  90106 -2.05293202E-04
  90107 -0.00000000E+00
  90108 -4.10586403E-05
  90109 -8.21172806E-05
  90110 -0.00000000E+00
  90111 -4.10586403E-05
  90114 -4.10586403E-05
  90115 -8.21172806E-05
  90117 -8.21172806E-05
  90118 -0.00000000E+00
  90119 -0.00000000E+00
  90120 -8.21172806E-05
  90121 -8.21172806E-05
  90122 -4.10586403E-05
  90123 -4.10586403E-05
  90124 -2.87410482E-04
  90125 -2.87410482E-04
  90126 -8.21172806E-05
  90127 -8.21172806E-05
  90128 -8.21172806E-05
  90129 -8.21172806E-05
  90130 -2.87410482E-04
  90131 -2.87410482E-04
  90132 -2.87410482E-04
  90133 -2.87410482E-04
  90134 -1.23175921E-04
  90135 -1.23175921E-04
  90136 -1.23175921E-04
  90137 -1.23175921E-04
  90138 -1.64234561E-04
  90139 -1.64234561E-04
  90140 -1.64234561E-04
  90142 -2.05293202E-04
  90143 -2.05293202E-04
  90144 -2.05293202E-04
  90145 -2.05293202E-04
  90146 -3.69527763E-04
  90148 -3.69527763E-04
  90149 -3.69527763E-04
  90166 -2.05293202E-04
  90167 -2.05293202E-04
  90168 -2.05293202E-04
  90169 -2.05293202E-04
  90170 -3.69527763E-04
  90171 -3.69527763E-04
  90172 -3.69527763E-04
  90173 -3.69527763E-04
  90174 -2.05293202E-04
  90175 -2.05293202E-04
  90176 -3.28469122E-04
  90177 -3.28469122E-04
  90178 -3.69527763E-04
  90179 -3.69527763E-04
  90180 -2.05293202E-04
  90181 -2.05293202E-04
  90182 -1.23175921E-04
  90183 -1.23175921E-04
  90184 -3.28469122E-04
  90185 -3.28469122E-04
  90186 -4.10586403E-05
  90187 -4.10586403E-05
  90188 -2.05293202E-04
  90189 -2.05293202E-04
  90190 -3.28469122E-04
  90191 -3.28469122E-04
  90192 -1.23175921E-04
  90193 -1.23175921E-04
  90194 -2.05293202E-04
  90195 -2.05293202E-04
  90196 -8.21172806E-05
  90197 -8.21172806E-05
  90214 -4.10586403E-05
  90215 -4.10586403E-05
  90216 -4.10586403E-05
  90217 -4.10586403E-05
  90218 -8.21172806E-05
  90219 -8.21172806E-05
  90220 -8.21172806E-05
  90221 -8.21172806E-05
  90222 -2.05293202E-04
  90223 -2.05293202E-04
  90224 -2.05293202E-04
  90225 -2.05293202E-04
  90226 -2.05293202E-04
  90227 -2.05293202E-04
  90228 -2.05293202E-04
  90229 -2.05293202E-04
  90230 -8.21172806E-05
  90231 -8.21172806E-05
  90232 -2.42245978E-03
  90233 -2.42245978E-03
  90234 -8.21172806E-05
  90236 -4.92703684E-04
  90237 -4.92703684E-04
  90238 -2.42245978E-03
  90239 -2.42245978E-03
  90240 -8.21172806E-05
  90241 -8.21172806E-05
  90242 -4.92703684E-04
  90243 -4.92703684E-04
  90244 -1.23175921E-04
  90245 -1.23175921E-04
  90246 -2.05293202E-04
  90247 -2.05293202E-04
  90248 -3.69527763E-04
  90249 -3.69527763E-04
  90250 -2.05293202E-04
  90251 -2.05293202E-04
  90252 -1.64234561E-03
  90253 -1.64234561E-03
  90254 -3.69527763E-04
  90255 -3.69527763E-04
  90256 -2.46351842E-04
  90257 -2.46351842E-04
  90258 -1.64234561E-03
  90259 -1.64234561E-03
  90260 -4.10586403E-04
  90261 -4.10586403E-04
  90262 -8.21172806E-05
  90264 -8.21172806E-05
  90265 -2.87410482E-04
  90267 -0.00000000E+00
  90268 -2.87410482E-04
  90269 -0.00000000E+00
  90270 -2.05293202E-04
  90271 -1.64234561E-04
  90272 -2.05293202E-04
  90273 -1.64234561E-04
  90274 -1.64234561E-04
  90275 -1.43705241E-03
  90276 -1.64234561E-04
  90277 -1.43705241E-03
  90278 -0.00000000E+00
  90279 -2.87410482E-04
  90280 -0.00000000E+00
  90281 -2.87410482E-04
  90282 -2.87410482E-04
  90283 -1.23175921E-04
  90284 -2.87410482E-04
  90285 -1.23175921E-04
  90286 -1.43705241E-03
  90287 -4.51645043E-04
  90288 -1.43705241E-03
  90289 -4.51645043E-04
  90290 -4.51645043E-04
  90291 -8.21172806E-04
  90292 -4.51645043E-04
  90293 -8.21172806E-04
  90294 -2.05293202E-04
  90295 -1.64234561E-04
  90296 -1.64234561E-03
  90297 -8.62231446E-04
  90298 -1.64234561E-04
  90299 -1.43705241E-03
  90300 -8.62231446E-04
  90301 -2.54563570E-03
  90302 -1.64234561E-03
  90303 -8.62231446E-04
  90304 -4.10586403E-04
  90305 -2.25822522E-03
  90306 -8.62231446E-04
  90307 -2.54563570E-03
  90308 -2.25822522E-03
  90309 -4.43433315E-03
  90310 -1.43705241E-03
  90311 -4.51645043E-04
  90312 -2.54563570E-03
  90313 -4.10586403E-03
  90314 -4.51645043E-04
  90315 -8.21172806E-04
  90316 -4.10586403E-03
  90317 -2.05293202E-03
  90318 -2.54563570E-03
  90319 -4.10586403E-03
  90320 -4.43433315E-03
  90321 -5.74820964E-04
  90322 -4.10586403E-03
  90323 -2.05293202E-03
  90324 -5.74820964E-04
  90325 -4.92703684E-04
  90326 -1.23175921E-04
  90327 -9.44348727E-04
  90328 -1.23175921E-04
  90329 -9.44348727E-04
  90330 -9.44348727E-04
  90331 -1.64234561E-04
  90332 -9.44348727E-04
  90333 -1.64234561E-04
  90334 -8.21172806E-04
  90335 -1.14964193E-03
  90336 -8.21172806E-04
  90337 -1.14964193E-03
  90338 -1.14964193E-03
  90339 -7.39055526E-04
  90340 -1.14964193E-03
  90341 -7.39055526E-04
  90342 -1.64234561E-04
  90343 -8.21172806E-04
  90344 -1.64234561E-04
  90345 -8.21172806E-04
  90346 -8.21172806E-04
  90347 -2.05293202E-04
  90348 -8.21172806E-04
  90349 -2.05293202E-04
  90350 -7.39055526E-04
  90351 -0.00000000E+00
  90352 -7.39055526E-04
  90353 -0.00000000E+00
  90354 -0.00000000E+00
  90355 -0.00000000E+00
  90356 -0.00000000E+00
  90357 -0.00000000E+00
  90358 -8.21172806E-04
  90359 -1.14964193E-03
  90360 -2.05293202E-03
  90361 -1.14964193E-03
  90362 -1.14964193E-03
  90363 -7.39055526E-04
  90364 -1.14964193E-03
  90365 -1.64234561E-04
  90366 -2.05293202E-03
  90367 -1.14964193E-03
  90368 -4.92703684E-04
  90369 -6.56938245E-04
  90370 -1.14964193E-03
  90371 -1.64234561E-04
  90372 -6.56938245E-04
  90373 -0.00000000E+00
  90374 -7.39055526E-04
  90375 -0.00000000E+00
  90376 -1.64234561E-04
  90377 -0.00000000E+00
  90378 -0.00000000E+00
  90379 -0.00000000E+00
  90380 -0.00000000E+00
  90381 -0.00000000E+00
  90382 -1.64234561E-04
  90383 -0.00000000E+00
  90384 -0.00000000E+00
  90385 -0.00000000E+00
  90386 -0.00000000E+00
  90387 -0.00000000E+00
  90388 -0.00000000E+00
  90389 -0.00000000E+00
  90390 -2.05293202E-04
  90391 -2.05293202E-04
  90392 -2.05293202E-04
  90393 -2.05293202E-04
  90394 -0.00000000E+00
  90395 -0.00000000E+00
  90396 -0.00000000E+00
  90397 -0.00000000E+00
  90398 -0.00000000E+00
  90399 -0.00000000E+00
  90400 -0.00000000E+00
  90401 -0.00000000E+00
  90402 -0.00000000E+00
  90403 -0.00000000E+00
  90404 -0.00000000E+00
  90405 -0.00000000E+00
  90406 -0.00000000E+00
  90407 -0.00000000E+00
  90408 -0.00000000E+00
  90409 -0.00000000E+00
  90410 -0.00000000E+00
  90411 -0.00000000E+00
  90412 -0.00000000E+00
  90413 -0.00000000E+00
  90414 -0.00000000E+00
  90415 -0.00000000E+00
  90416 -0.00000000E+00
  90417 -0.00000000E+00
  90418 -0.00000000E+00
  90419 -0.00000000E+00
  90420 -0.00000000E+00
  90421 -0.00000000E+00
  90422 -0.00000000E+00
  90423 -0.00000000E+00
  90424 -0.00000000E+00
  90425 -0.00000000E+00
  90426 -0.00000000E+00
  90427 -0.00000000E+00
  90428 -0.00000000E+00
  90429 -0.00000000E+00
  90430 -0.00000000E+00
  90431 -0.00000000E+00
  90432 -0.00000000E+00
  90433 -0.00000000E+00
  90434 -0.00000000E+00
  90435 -0.00000000E+00
  90436 -0.00000000E+00
  90437 -0.00000000E+00
  90438 -0.00000000E+00
  90439 -0.00000000E+00
  90440 -2.46351842E-04
  90441 -2.46351842E-04
  90442 -0.00000000E+00
  90443 -0.00000000E+00
  90444 -4.10586403E-05
  90445 -4.10586403E-05
  90446 -2.46351842E-04
  90447 -2.46351842E-04
  90448 -5.74820964E-04
  90449 -5.74820964E-04
  90450 -4.10586403E-05
  90451 -4.10586403E-05
  90452 -4.10586403E-04
  90453 -4.10586403E-04
  90454 -0.00000000E+00
  90455 -0.00000000E+00
  90456 -0.00000000E+00
  90457 -0.00000000E+00
  90458 -7.39055526E-04
  90459 -7.39055526E-04
  90460 -7.39055526E-04
  90461 -7.39055526E-04
  90462 -0.00000000E+00
  90463 -0.00000000E+00
  90464 -0.00000000E+00
  90465 -0.00000000E+00
  90466 -6.15879605E-04
  90468 -6.15879605E-04
  90483 -0.00000000E+00
  90484 -0.00000000E+00
  90485 -8.21172806E-04
  90486 -8.21172806E-04
  90487 -6.15879605E-04
  90491 -8.21172806E-04
  90492 -8.21172806E-04
  90493 -0.00000000E+00
  90494 -0.00000000E+00
  91098 -4.10586403E-05
  91099 -8.21172806E-05
  91100 -4.10586403E-05
  91101 -8.21172806E-05
  91106 -4.10586403E-05
  91107 -4.10586403E-05
  91108 -4.10586403E-05
  91109 -4.10586403E-05
  91110 -8.21172806E-05
  91111 -8.21172806E-05
  91112 -8.21172806E-05
  91113 -8.21172806E-05
  91114 -2.87410482E-04
  91115 -2.87410482E-04
  91116 -2.87410482E-04
  91117 -2.87410482E-04
  91118 -4.10586403E-05
  91119 -4.10586403E-05
  91120 -4.10586403E-05
  91121 -4.10586403E-05
  91122 -8.21172806E-05
  91123 -8.21172806E-05
  91124 -8.21172806E-05
  91125 -8.21172806E-05
  91130 -4.10586403E-05
  91131 -4.10586403E-05
  91132 -0.00000000E+00
  91133 -9.03290087E-04
  91135 -0.00000000E+00
  91137 -0.00000000E+00
  91138 -0.00000000E+00
  91139 -9.03290087E-04
  91140 -0.00000000E+00
  91141 -9.03290087E-04
  91142 -4.10586403E-05
  91143 -4.10586403E-05
  91144 -9.03290087E-04
  91145 -9.03290087E-04
  91146 -8.21172806E-05
  91147 -8.21172806E-05
  91148 -2.05293202E-04
  91149 -2.05293202E-04
  91150 -9.03290087E-04
  91151 -9.03290087E-04
  91152 -9.03290087E-04
  91153 -9.03290087E-04
  91154 -2.05293202E-04
  91155 -2.05293202E-04
  91156 -2.05293202E-04
  91157 -2.05293202E-04
  91158 -3.28469122E-04
  91159 -3.28469122E-04
  91160 -3.28469122E-04
  91161 -3.28469122E-04
  91162 -2.05293202E-04
  91163 -2.05293202E-04
  91164 -2.05293202E-04
  91165 -2.05293202E-04
  91166 -8.62231446E-04
  91167 -8.62231446E-04
  91168 -8.62231446E-04
  91169 -8.62231446E-04
  91170 -8.21172806E-05
  91171 -8.21172806E-05
  91172 -8.21172806E-05
  91173 -8.21172806E-05
  91174 -1.23175921E-04
  91175 -1.23175921E-04
  91176 -1.23175921E-04
  91177 -1.23175921E-04
  91178 -8.21172806E-05
  91179 -8.21172806E-05
  91180 -8.21172806E-05
  91181 -8.21172806E-05
  91182 -0.00000000E+00
  91183 -0.00000000E+00
  91184 -0.00000000E+00
  91185 -0.00000000E+00
  91186 -0.00000000E+00
  91187 -0.00000000E+00
  91188 -0.00000000E+00
  91189 -0.00000000E+00
  91190 -8.62231446E-04
  91191 -8.62231446E-04
  91192 -1.64234561E-04
  91193 -1.64234561E-04
  91194 -8.21172806E-05
  91195 -8.21172806E-05
  91196 -4.10586403E-05
  91197 -4.10586403E-05
  91198 -1.64234561E-04
  91199 -1.64234561E-04
  91200 -1.64234561E-04
  91201 -1.64234561E-04
  91202 -4.10586403E-05
  91203 -4.10586403E-05
  91204 -4.10586403E-05
  91205 -4.10586403E-05
  91206 -0.00000000E+00
  91207 -0.00000000E+00
  91208 -0.00000000E+00
  91209 -0.00000000E+00
  91210 -0.00000000E+00
  91211 -0.00000000E+00
  91212 -0.00000000E+00
  91213 -0.00000000E+00
  91214 -0.00000000E+00
  91215 -0.00000000E+00
  91216 -0.00000000E+00
  91217 -0.00000000E+00
  91218 -0.00000000E+00
  91219 -0.00000000E+00
  91220 -0.00000000E+00
  91221 -0.00000000E+00
  91222 -8.21172806E-05
  91223 -8.21172806E-05
  91224 -8.21172806E-05
  91225 -8.21172806E-05
  91226 -1.23175921E-04
  91227 -1.23175921E-04
  91228 -1.23175921E-04
  91229 -1.23175921E-04
  91230 -4.10586403E-04
  91231 -4.10586403E-04
  91232 -4.10586403E-04
  91233 -4.10586403E-04
  91234 -1.64234561E-04
  91235 -1.64234561E-04
  91236 -1.64234561E-04
  91237 -1.64234561E-04
  91238 -2.46351842E-04
  91239 -2.46351842E-04
  91240 -2.46351842E-04
  91241 -2.46351842E-04
  91242 -4.10586403E-04
  91243 -4.10586403E-04
  91244 -4.10586403E-04
  91245 -4.10586403E-04
  91246 -4.10586403E-05
  91247 -4.10586403E-05
  91248 -4.10586403E-05
  91249 -4.10586403E-05
  91250 -1.23175921E-04
  91251 -1.23175921E-04
  91252 -1.23175921E-04
  91253 -1.23175921E-04
  91254 -4.10586403E-04
  91255 -4.10586403E-04
  91256 -0.00000000E+00
  91257 -0.00000000E+00
  91258 -1.64234561E-04
  91259 -1.64234561E-04
  91260 -4.10586403E-05
  91261 -4.10586403E-05
  91262 -0.00000000E+00
  91263 -0.00000000E+00
  91264 -0.00000000E+00
  91265 -0.00000000E+00
  91266 -4.10586403E-05
  91267 -4.10586403E-05
  91268 -4.10586403E-05
  91269 -4.10586403E-05
  91270 -4.10586403E-05
  91271 -4.10586403E-05
  91272 -0.00000000E+00
  91273 -0.00000000E+00
  91274 -1.23175921E-04
  91275 -1.23175921E-04
  91276 -4.10586403E-05
  91277 -4.10586403E-05
  91278 -0.00000000E+00
  91279 -0.00000000E+00
  91280 -0.00000000E+00
  91281 -0.00000000E+00
  91282 -4.10586403E-05
  91283 -4.10586403E-05
  91284 -4.10586403E-05
  91285 -4.10586403E-05
  91286 -4.10586403E-04
  91287 -2.25822522E-03
  91288 -4.10586403E-04
  91289 -2.25822522E-03
  91290 -2.25822522E-03
  91291 -4.43433315E-03
  91292 -2.25822522E-03
  91293 -4.43433315E-03
  91294 -1.23175921E-04
  91295 -2.05293202E-04
  91296 -1.23175921E-04
  91297 -2.05293202E-04
  91298 -2.05293202E-04
  91299 -1.71625116E-02
  91300 -2.05293202E-04
  91301 -1.71625116E-02
  91302 -4.43433315E-03
  91303 -5.74820964E-04
  91304 -4.43433315E-03
  91305 -5.74820964E-04
  91306 -5.74820964E-04
  91307 -4.92703684E-04
  91308 -5.74820964E-04
  91309 -4.92703684E-04
  91310 -1.71625116E-02
  91311 -4.55750907E-03
  91312 -1.71625116E-02
  91313 -4.55750907E-03
  91314 -4.55750907E-03
  91315 -2.87410482E-04
  91316 -4.55750907E-03
  91317 -2.87410482E-04
  91318 -1.23175921E-04
  91319 -2.05293202E-04
  91320 -4.10586403E-05
  91321 -1.64234561E-04
  91322 -2.05293202E-04
  91323 -1.71625116E-02
  91324 -1.64234561E-04
  91325 -3.94162947E-03
  91326 -4.10586403E-05
  91327 -1.64234561E-04
  91328 -4.10586403E-05
  91329 -1.64234561E-04
  91330 -1.64234561E-04
  91331 -3.94162947E-03
  91332 -1.64234561E-04
  91333 -3.94162947E-03
  91334 -1.71625116E-02
  91335 -4.55750907E-03
  91336 -3.94162947E-03
  91337 -8.62231446E-04
  91338 -4.55750907E-03
  91339 -2.87410482E-04
  91340 -8.62231446E-04
  91341 -2.46351842E-04
  91342 -3.94162947E-03
  91343 -8.62231446E-04
  91344 -3.94162947E-03
  91345 -8.62231446E-04
  91346 -8.62231446E-04
  91347 -2.46351842E-04
  91348 -8.62231446E-04
  91349 -2.46351842E-04
  91350 -4.92703684E-04
  91351 -6.56938245E-04
  91352 -4.92703684E-04
  91353 -6.56938245E-04
  91354 -6.56938245E-04
  91355 -0.00000000E+00
  91356 -6.56938245E-04
  91357 -0.00000000E+00
  91358 -2.87410482E-04
  91359 -3.69527763E-04
  91360 -2.87410482E-04
  91361 -3.69527763E-04
  91362 -3.69527763E-04
  91363 -0.00000000E+00
  91364 -3.69527763E-04
  91365 -0.00000000E+00
  91366 -0.00000000E+00
  91367 -0.00000000E+00
  91368 -0.00000000E+00
  91369 -0.00000000E+00
  91370 -0.00000000E+00
  91371 -0.00000000E+00
  91372 -0.00000000E+00
  91373 -0.00000000E+00
  91374 -0.00000000E+00
  91375 -0.00000000E+00
  91376 -0.00000000E+00
  91377 -0.00000000E+00
  91378 -0.00000000E+00
  91379 -0.00000000E+00
  91380 -0.00000000E+00
  91381 -0.00000000E+00
  91382 -2.87410482E-04
  91383 -3.69527763E-04
  91384 -2.46351842E-04
  91385 -4.51645043E-04
  91386 -3.69527763E-04
  91387 -0.00000000E+00
  91388 -4.51645043E-04
  91389 -2.05293202E-04
  91390 -2.46351842E-04
  91391 -4.51645043E-04
  91392 -2.46351842E-04
  91393 -4.51645043E-04
  91394 -4.51645043E-04
  91395 -2.05293202E-04
  91396 -4.51645043E-04
  91397 -2.05293202E-04
  91398 -0.00000000E+00
  91399 -0.00000000E+00
  91400 -2.05293202E-04
  91401 -0.00000000E+00
  91402 -0.00000000E+00
  91403 -0.00000000E+00
  91404 -0.00000000E+00
  91405 -0.00000000E+00
  91406 -2.05293202E-04
  91407 -0.00000000E+00
  91408 -2.05293202E-04
  91409 -0.00000000E+00
  91410 -0.00000000E+00
  91411 -0.00000000E+00
  91412 -0.00000000E+00
  91413 -0.00000000E+00
  91414 -0.00000000E+00
  91415 -0.00000000E+00
  91416 -0.00000000E+00
  91417 -0.00000000E+00
  91418 -0.00000000E+00
  91419 -0.00000000E+00
  91420 -0.00000000E+00
  91421 -0.00000000E+00
  91422 -0.00000000E+00
  91423 -0.00000000E+00
  91424 -0.00000000E+00
  91425 -0.00000000E+00
  91426 -0.00000000E+00
  91427 -0.00000000E+00
  91428 -0.00000000E+00
  91429 -0.00000000E+00
  91430 -5.74820964E-04
  91431 -5.74820964E-04
  91432 -5.74820964E-04
  91433 -5.74820964E-04
  91434 -4.10586403E-04
  91435 -4.10586403E-04
  91436 -4.10586403E-04
  91437 -4.10586403E-04
  91438 -0.00000000E+00
  91439 -0.00000000E+00
  91440 -0.00000000E+00
  91441 -0.00000000E+00
  91442 -2.46351842E-04
  91443 -2.46351842E-04
  91444 -2.46351842E-04
  91445 -2.46351842E-04
  91446 -0.00000000E+00
  91447 -0.00000000E+00
  91448 -0.00000000E+00
  91449 -0.00000000E+00
  91450 -0.00000000E+00
  91451 -0.00000000E+00
  91452 -0.00000000E+00
  91453 -0.00000000E+00
  91454 -0.00000000E+00
  91455 -0.00000000E+00
  91456 -0.00000000E+00
  91457 -0.00000000E+00
  91458 -0.00000000E+00
  91459 -0.00000000E+00
  91460 -0.00000000E+00
  91461 -0.00000000E+00
  91462 -0.00000000E+00
  91463 -0.00000000E+00
  91464 -0.00000000E+00
  91465 -0.00000000E+00
  91466 -2.46351842E-04
  91467 -2.46351842E-04
  91468 -0.00000000E+00
  91469 -0.00000000E+00
  91470 -0.00000000E+00
  91471 -0.00000000E+00
  91472 -0.00000000E+00
  91473 -0.00000000E+00
  91474 -0.00000000E+00
  91475 -0.00000000E+00
  91476 -0.00000000E+00
  91477 -0.00000000E+00
  91478 -0.00000000E+00
  91479 -0.00000000E+00
  91480 -0.00000000E+00
  91481 -0.00000000E+00
  91486 -4.10586403E-04
  91487 -4.10586403E-04
  91488 -4.10586403E-04
  91489 -4.10586403E-04
  91510 -4.10586403E-04
  91511 -4.10586403E-04
  91512 -1.64234561E-04
  91518 -1.64234561E-04
  91520 -1.64234561E-04
  91879 -8.21172806E-05
  91897 -8.21172806E-05
  91898 -4.10586403E-04
  91899 -4.10586403E-04
  91900 -8.21172806E-05
  91901 -8.21172806E-05
  91902 -0.00000000E+00
  91903 -0.00000000E+00
  91904 -4.10586403E-04
  91905 -4.10586403E-04
  91906 -4.10586403E-04
  91907 -4.10586403E-04
  91908 -0.00000000E+00
  91909 -0.00000000E+00
  91910 -0.00000000E+00
  91911 -0.00000000E+00
  91921 -0.00000000E+00
  91922 -0.00000000E+00
  91923 -0.00000000E+00