# File generated by Flopy version 3.9.1 on 04/13/2026 at 16:45:39.
BEGIN options
  SAVE_FLOWS
END options

BEGIN dimensions
  MAXBOUND  2676
END dimensions

BEGIN period  1
  1 0.00000000E+00
  2 0.00000000E+00
  3 0.00000000E+00
  4 0.00000000E+00
  5 0.00000000E+00
  6 0.00000000E+00
  7 0.00000000E+00
  8 0.00000000E+00
  9 0.00000000E+00
  10 0.00000000E+00
  11 0.00000000E+00
  12 0.00000000E+00
  13 0.00000000E+00
  14 0.00000000E+00
  15 0.00000000E+00
  16 0.00000000E+00
  17 0.00000000E+00
  18 0.00000000E+00
  19 0.00000000E+00
  20 0.00000000E+00
  21 0.00000000E+00
  22 0.00000000E+00
  23 0.00000000E+00
  24 0.00000000E+00
  25 0.00000000E+00
  26 0.00000000E+00
  27 0.00000000E+00
  28 0.00000000E+00
  29 0.00000000E+00
  30 0.00000000E+00
  31 0.00000000E+00
  32 0.00000000E+00
  33 0.00000000E+00
  34 0.00000000E+00
  35 0.00000000E+00
  36 0.00000000E+00
  37 0.00000000E+00
  38 0.00000000E+00
  39 0.00000000E+00
  40 0.00000000E+00
  41 0.00000000E+00
  42 0.00000000E+00
  43 0.00000000E+00
  44 0.00000000E+00
  45 0.00000000E+00
  46 0.00000000E+00
  47 0.00000000E+00
  48 0.00000000E+00
  49 0.00000000E+00
  50 0.00000000E+00
  51 0.00000000E+00
  52 0.00000000E+00
  53 0.00000000E+00
  54 0.00000000E+00
  55 0.00000000E+00
  56 0.00000000E+00
  57 0.00000000E+00
  58 0.00000000E+00
  59 0.00000000E+00
  60 0.00000000E+00
  61 0.00000000E+00
  62 0.00000000E+00
  63 0.00000000E+00
  64 0.00000000E+00
  65 0.00000000E+00
  66 0.00000000E+00
  67 0.00000000E+00
  68 0.00000000E+00
  69 0.00000000E+00
  70 0.00000000E+00
  71 0.00000000E+00
  72 0.00000000E+00
  73 0.00000000E+00
  74 0.00000000E+00
  75 0.00000000E+00
  76 0.00000000E+00
  77 0.00000000E+00
  78 0.00000000E+00
  79 0.00000000E+00
  80 0.00000000E+00
  81 0.00000000E+00
  82 0.00000000E+00
  83 0.00000000E+00
  84 0.00000000E+00
  85 0.00000000E+00
  86 0.00000000E+00
  87 0.00000000E+00
  88 0.00000000E+00
  89 0.00000000E+00
  90 0.00000000E+00
  91 0.00000000E+00
  92 0.00000000E+00
  93 0.00000000E+00
  94 0.00000000E+00
  95 0.00000000E+00
  96 0.00000000E+00
  97 0.00000000E+00
  98 0.00000000E+00
  99 0.00000000E+00
  100 0.00000000E+00
  101 0.00000000E+00
  102 0.00000000E+00
  103 0.00000000E+00
  104 0.00000000E+00
  105 0.00000000E+00
  106 0.00000000E+00
  107 0.00000000E+00
  108 0.00000000E+00
  109 0.00000000E+00
  110 0.00000000E+00
  111 0.00000000E+00
  112 0.00000000E+00
  113 0.00000000E+00
  114 0.00000000E+00
  115 0.00000000E+00
  116 0.00000000E+00
  117 0.00000000E+00
  118 0.00000000E+00
  119 0.00000000E+00
  120 0.00000000E+00
  121 0.00000000E+00
  122 0.00000000E+00
  123 0.00000000E+00
  124 0.00000000E+00
  125 0.00000000E+00
  126 0.00000000E+00
  127 0.00000000E+00
  128 0.00000000E+00
  129 0.00000000E+00
  130 0.00000000E+00
  131 0.00000000E+00
  132 0.00000000E+00
  133 0.00000000E+00
  134 0.00000000E+00
  135 0.00000000E+00
  136 0.00000000E+00
  137 0.00000000E+00
  138 0.00000000E+00
  139 0.00000000E+00
  140 0.00000000E+00
  141 0.00000000E+00
  142 0.00000000E+00
  143 0.00000000E+00
  144 0.00000000E+00
  145 0.00000000E+00
  146 0.00000000E+00
  147 0.00000000E+00
  148 0.00000000E+00
  149 0.00000000E+00
  150 0.00000000E+00
  151 0.00000000E+00
  152 0.00000000E+00
  153 0.00000000E+00
  154 0.00000000E+00
  155 0.00000000E+00
  156 0.00000000E+00
  157 0.00000000E+00
  158 0.00000000E+00
  159 0.00000000E+00
  160 0.00000000E+00
  161 0.00000000E+00
  162 0.00000000E+00
  163 0.00000000E+00
  164 0.00000000E+00
  165 0.00000000E+00
  166 0.00000000E+00
  167 0.00000000E+00
  168 0.00000000E+00
  169 0.00000000E+00
  170 0.00000000E+00
  171 0.00000000E+00
  172 0.00000000E+00
  173 0.00000000E+00
  174 0.00000000E+00
  175 0.00000000E+00
  176 0.00000000E+00
  177 0.00000000E+00
  178 0.00000000E+00
  179 0.00000000E+00
  180 0.00000000E+00
  181 0.00000000E+00
  182 0.00000000E+00
  183 0.00000000E+00
  184 0.00000000E+00
  185 0.00000000E+00
  186 0.00000000E+00
  187 0.00000000E+00
  188 0.00000000E+00
  189 0.00000000E+00
  190 0.00000000E+00
  191 0.00000000E+00
  192 0.00000000E+00
  193 0.00000000E+00
  194 0.00000000E+00
  195 0.00000000E+00
  196 0.00000000E+00
  197 0.00000000E+00
  198 0.00000000E+00
  199 0.00000000E+00
  200 0.00000000E+00
  201 0.00000000E+00
  202 0.00000000E+00
  203 0.00000000E+00
  204 0.00000000E+00
  206 0.00000000E+00
  207 0.00000000E+00
  208 0.00000000E+00
  209 0.00000000E+00
  210 0.00000000E+00
  211 0.00000000E+00
  212 0.00000000E+00
  213 0.00000000E+00
  214 0.00000000E+00
  215 0.00000000E+00
  216 0.00000000E+00
  217 0.00000000E+00
  218 0.00000000E+00
  219 0.00000000E+00
  220 0.00000000E+00
  221 0.00000000E+00
  223 0.00000000E+00
  226 0.00000000E+00
  227 0.00000000E+00
  229 0.00000000E+00
  230 0.00000000E+00
  231 0.00000000E+00
  232 0.00000000E+00
  233 0.00000000E+00
  234 0.00000000E+00
  235 0.00000000E+00
  236 0.00000000E+00
  237 0.00000000E+00
  238 0.00000000E+00
  239 0.00000000E+00
  240 0.00000000E+00
  241 0.00000000E+00
  242 0.00000000E+00
  243 0.00000000E+00
  244 0.00000000E+00
  245 0.00000000E+00
  246 0.00000000E+00
  247 0.00000000E+00
  248 0.00000000E+00
  249 0.00000000E+00
  250 0.00000000E+00
  251 0.00000000E+00
  252 0.00000000E+00
  253 0.00000000E+00
  254 0.00000000E+00
  255 0.00000000E+00
  256 0.00000000E+00
  257 0.00000000E+00
  258 0.00000000E+00
  259 0.00000000E+00
  260 0.00000000E+00
  261 0.00000000E+00
  262 0.00000000E+00
  263 0.00000000E+00
  264 0.00000000E+00
  265 0.00000000E+00
  266 0.00000000E+00
  267 0.00000000E+00
  268 0.00000000E+00
  269 0.00000000E+00
  270 0.00000000E+00
  271 0.00000000E+00
  272 0.00000000E+00
  273 0.00000000E+00
  274 0.00000000E+00
  275 0.00000000E+00
  276 0.00000000E+00
  277 0.00000000E+00
  278 0.00000000E+00
  279 0.00000000E+00
  280 0.00000000E+00
  281 0.00000000E+00
  282 0.00000000E+00
  283 0.00000000E+00
  284 0.00000000E+00
  285 0.00000000E+00
  286 0.00000000E+00
  287 0.00000000E+00
  288 0.00000000E+00
  289 0.00000000E+00
  290 0.00000000E+00
  291 0.00000000E+00
  292 0.00000000E+00
  293 0.00000000E+00
  294 0.00000000E+00
  295 0.00000000E+00
  296 0.00000000E+00
  297 0.00000000E+00
  298 0.00000000E+00
  299 0.00000000E+00
  300 0.00000000E+00
  301 0.00000000E+00
  302 0.00000000E+00
  303 0.00000000E+00
  304 0.00000000E+00
  305 0.00000000E+00
  306 0.00000000E+00
  307 0.00000000E+00
  308 0.00000000E+00
  309 0.00000000E+00
  310 0.00000000E+00
  311 0.00000000E+00
  312 0.00000000E+00
  313 0.00000000E+00
  314 0.00000000E+00
  315 0.00000000E+00
  316 0.00000000E+00
  317 0.00000000E+00
  318 0.00000000E+00
  319 0.00000000E+00
  320 0.00000000E+00
  321 0.00000000E+00
  322 0.00000000E+00
  323 0.00000000E+00
  324 0.00000000E+00
  325 0.00000000E+00
  326 0.00000000E+00
  327 0.00000000E+00
  328 0.00000000E+00
  329 0.00000000E+00
  330 0.00000000E+00
  331 0.00000000E+00
  332 0.00000000E+00
  333 0.00000000E+00
  334 0.00000000E+00
  335 0.00000000E+00
  336 0.00000000E+00
  337 0.00000000E+00
  338 0.00000000E+00
  339 0.00000000E+00
  340 0.00000000E+00
  341 0.00000000E+00
  342 0.00000000E+00
  343 0.00000000E+00
  344 0.00000000E+00
  345 0.00000000E+00
  346 0.00000000E+00
  347 0.00000000E+00
  348 0.00000000E+00
  349 0.00000000E+00
  350 0.00000000E+00
  351 0.00000000E+00
  352 0.00000000E+00
  353 0.00000000E+00
  354 0.00000000E+00
  355 0.00000000E+00
  356 0.00000000E+00
  360 0.00000000E+00
  361 0.00000000E+00
  362 0.00000000E+00
  363 0.00000000E+00
  364 0.00000000E+00
  365 0.00000000E+00
  366 0.00000000E+00
  367 0.00000000E+00
  368 0.00000000E+00
  369 0.00000000E+00
  370 0.00000000E+00
  374 0.00000000E+00
  379 0.00000000E+00
  427 0.00000000E+00
  430 0.00000000E+00
  431 0.00000000E+00
  433 0.00000000E+00
  436 0.00000000E+00
  437 0.00000000E+00
  438 0.00000000E+00
  439 0.00000000E+00
  440 0.00000000E+00
  441 0.00000000E+00
  442 0.00000000E+00
  443 0.00000000E+00
  444 0.00000000E+00
  445 0.00000000E+00
  446 0.00000000E+00
  447 0.00000000E+00
  448 0.00000000E+00
  449 0.00000000E+00
  450 0.00000000E+00
  451 0.00000000E+00
  452 0.00000000E+00
  453 0.00000000E+00
  454 0.00000000E+00
  455 0.00000000E+00
  457 0.00000000E+00
  458 0.00000000E+00
  461 0.00000000E+00
  462 0.00000000E+00
  463 0.00000000E+00
  464 0.00000000E+00
  465 0.00000000E+00
  466 0.00000000E+00
  467 0.00000000E+00
  468 0.00000000E+00
  469 0.00000000E+00
  470 0.00000000E+00
  471 0.00000000E+00
  472 0.00000000E+00
  473 0.00000000E+00
  474 0.00000000E+00
  475 0.00000000E+00
  476 0.00000000E+00
  477 0.00000000E+00
  478 0.00000000E+00
  479 0.00000000E+00
  480 0.00000000E+00
  481 0.00000000E+00
  482 0.00000000E+00
  483 0.00000000E+00
  484 0.00000000E+00
  485 0.00000000E+00
  486 0.00000000E+00
  487 0.00000000E+00
  488 0.00000000E+00
  489 0.00000000E+00
  490 0.00000000E+00
  491 0.00000000E+00
  492 0.00000000E+00
  493 0.00000000E+00
  494 0.00000000E+00
  495 0.00000000E+00
  496 0.00000000E+00
  497 0.00000000E+00
  498 0.00000000E+00
  499 0.00000000E+00
  500 0.00000000E+00
  501 0.00000000E+00
  502 0.00000000E+00
  503 0.00000000E+00
  504 0.00000000E+00
  505 0.00000000E+00
  506 0.00000000E+00
  507 0.00000000E+00
  509 0.00000000E+00
  510 0.00000000E+00
  511 0.00000000E+00
  512 0.00000000E+00
  519 0.00000000E+00
  523 0.00000000E+00
  524 0.00000000E+00
  525 0.00000000E+00
  526 0.00000000E+00
  527 0.00000000E+00
  528 0.00000000E+00
  529 0.00000000E+00
  530 0.00000000E+00
  531 0.00000000E+00
  532 0.00000000E+00
  533 0.00000000E+00
  534 0.00000000E+00
  535 0.00000000E+00
  536 0.00000000E+00
  537 0.00000000E+00
  538 0.00000000E+00
  539 0.00000000E+00
  540 0.00000000E+00
  541 0.00000000E+00
  542 0.00000000E+00
  543 0.00000000E+00
  544 0.00000000E+00
  545 0.00000000E+00
  546 0.00000000E+00
  547 0.00000000E+00
  548 0.00000000E+00
  549 0.00000000E+00
  550 0.00000000E+00
  557 0.00000000E+00
  558 0.00000000E+00
  559 0.00000000E+00
  573 0.00000000E+00
  710 0.00000000E+00
  711 0.00000000E+00
  712 0.00000000E+00
  713 0.00000000E+00
  714 0.00000000E+00
  715 0.00000000E+00
  716 0.00000000E+00
  717 0.00000000E+00
  718 0.00000000E+00
  719 0.00000000E+00
  720 0.00000000E+00
  721 0.00000000E+00
  722 0.00000000E+00
  723 0.00000000E+00
  724 0.00000000E+00
  725 0.00000000E+00
  726 0.00000000E+00
  727 0.00000000E+00
  728 0.00000000E+00
  729 0.00000000E+00
  730 0.00000000E+00
  731 0.00000000E+00
  732 0.00000000E+00
  733 0.00000000E+00
  734 0.00000000E+00
  735 0.00000000E+00
  736 0.00000000E+00
  737 0.00000000E+00
  738 0.00000000E+00
  739 0.00000000E+00
  740 0.00000000E+00
  741 0.00000000E+00
  742 0.00000000E+00
  743 0.00000000E+00
  744 0.00000000E+00
  745 0.00000000E+00
  746 0.00000000E+00
  747 0.00000000E+00
  748 0.00000000E+00
  749 0.00000000E+00
  750 0.00000000E+00
  751 0.00000000E+00
  752 0.00000000E+00
  753 0.00000000E+00
  754 0.00000000E+00
  755 0.00000000E+00
  756 0.00000000E+00
  757 0.00000000E+00
  758 0.00000000E+00
  759 0.00000000E+00
  760 0.00000000E+00
  761 0.00000000E+00
  762 0.00000000E+00
  763 0.00000000E+00
  764 0.00000000E+00
  765 0.00000000E+00
  766 0.00000000E+00
  767 0.00000000E+00
  768 0.00000000E+00
  769 0.00000000E+00
  770 0.00000000E+00
  771 0.00000000E+00
  772 0.00000000E+00
  773 0.00000000E+00
  774 0.00000000E+00
  775 0.00000000E+00
  776 0.00000000E+00
  777 0.00000000E+00
  778 0.00000000E+00
  779 0.00000000E+00
  780 0.00000000E+00
  781 0.00000000E+00
  782 0.00000000E+00
  783 0.00000000E+00
  784 0.00000000E+00
  785 0.00000000E+00
  786 0.00000000E+00
  787 0.00000000E+00
  788 0.00000000E+00
  789 0.00000000E+00
  790 0.00000000E+00
  791 0.00000000E+00
  792 0.00000000E+00
  793 0.00000000E+00
  794 0.00000000E+00
  795 0.00000000E+00
  796 0.00000000E+00
  797 0.00000000E+00
  798 0.00000000E+00
  799 0.00000000E+00
  800 0.00000000E+00
  801 0.00000000E+00
  802 0.00000000E+00
  804 0.00000000E+00
  805 0.00000000E+00
  816 0.00000000E+00
  817 0.00000000E+00
  832 0.00000000E+00
  833 0.00000000E+00
  834 0.00000000E+00
  835 0.00000000E+00
  836 0.00000000E+00
  837 0.00000000E+00
  838 0.00000000E+00
  839 0.00000000E+00
  851 0.00000000E+00
  852 0.00000000E+00
  853 0.00000000E+00
  854 0.00000000E+00
  855 0.00000000E+00
  856 0.00000000E+00
  857 0.00000000E+00
  858 0.00000000E+00
  859 0.00000000E+00
  860 0.00000000E+00
  867 0.00000000E+00
  868 0.00000000E+00
  1117 0.00000000E+00
  1118 0.00000000E+00
  1119 0.00000000E+00
  1120 0.00000000E+00
  1121 0.00000000E+00
  1122 0.00000000E+00
  1123 0.00000000E+00
  1124 0.00000000E+00
  1125 0.00000000E+00
  1126 0.00000000E+00
  1127 0.00000000E+00
  1128 0.00000000E+00
  1129 0.00000000E+00
  1130 0.00000000E+00
  1131 0.00000000E+00
  1132 0.00000000E+00
  1133 0.00000000E+00
  1134 0.00000000E+00
  1135 0.00000000E+00
  1136 0.00000000E+00
  1137 0.00000000E+00
  1138 0.00000000E+00
  1139 0.00000000E+00
  1140 0.00000000E+00
  1141 0.00000000E+00
  1142 0.00000000E+00
  1143 0.00000000E+00
  1144 0.00000000E+00
  1145 0.00000000E+00
  1146 0.00000000E+00
  1147 0.00000000E+00
  1148 0.00000000E+00
  1149 0.00000000E+00
  1150 0.00000000E+00
  1151 0.00000000E+00
  1152 0.00000000E+00
  1153 0.00000000E+00
  1154 0.00000000E+00
  1155 0.00000000E+00
  1156 0.00000000E+00
  1157 0.00000000E+00
  1158 0.00000000E+00
  1159 0.00000000E+00
  1160 0.00000000E+00
  1161 0.00000000E+00
  1162 0.00000000E+00
  1163 0.00000000E+00
  1164 0.00000000E+00
  1165 0.00000000E+00
  1166 0.00000000E+00
  1167 0.00000000E+00
  1168 0.00000000E+00
  1169 0.00000000E+00
  1170 0.00000000E+00
  1171 0.00000000E+00
  1172 0.00000000E+00
  1173 0.00000000E+00
  1174 0.00000000E+00
  1175 0.00000000E+00
  1176 0.00000000E+00
  1177 0.00000000E+00
  1178 0.00000000E+00
  1179 0.00000000E+00
  1180 0.00000000E+00
  1182 0.00000000E+00
  1184 0.00000000E+00
  1185 0.00000000E+00
  1186 0.00000000E+00
  1187 0.00000000E+00
  1188 0.00000000E+00
  1189 0.00000000E+00
  1190 0.00000000E+00
  1196 0.00000000E+00
  1198 0.00000000E+00
  1581 0.00000000E+00
  1582 0.00000000E+00
  1583 0.00000000E+00
  1584 0.00000000E+00
  1585 0.00000000E+00
  1586 0.00000000E+00
  1587 0.00000000E+00
  1588 0.00000000E+00
  1589 0.00000000E+00
  1590 0.00000000E+00
  1591 0.00000000E+00
  1592 0.00000000E+00
  1593 0.00000000E+00
  1594 0.00000000E+00
  1595 0.00000000E+00
  1596 0.00000000E+00
  1597 0.00000000E+00
  1598 0.00000000E+00
  1599 0.00000000E+00
  1600 0.00000000E+00
  1601 0.00000000E+00
  1602 0.00000000E+00
  1603 0.00000000E+00
  1604 0.00000000E+00
  1605 0.00000000E+00
  1606 0.00000000E+00
  1607 0.00000000E+00
  1608 0.00000000E+00
  1609 0.00000000E+00
  1610 0.00000000E+00
  1611 0.00000000E+00
  1612 0.00000000E+00
  1613 0.00000000E+00
  1614 0.00000000E+00
  1615 0.00000000E+00
  1616 0.00000000E+00
  1617 0.00000000E+00
  1618 0.00000000E+00
  1619 0.00000000E+00
  1620 0.00000000E+00
  1621 0.00000000E+00
  1622 0.00000000E+00
  1623 0.00000000E+00
  1624 0.00000000E+00
  1625 0.00000000E+00
  1626 0.00000000E+00
  1627 0.00000000E+00
  1628 0.00000000E+00
  1629 0.00000000E+00
  1630 0.00000000E+00
  1631 0.00000000E+00
  1632 0.00000000E+00
  1633 0.00000000E+00
  1634 0.00000000E+00
  1635 0.00000000E+00
  1636 0.00000000E+00
  1637 0.00000000E+00
  1638 0.00000000E+00
  1639 0.00000000E+00
  1640 0.00000000E+00
  1641 0.00000000E+00
  1642 0.00000000E+00
  1650 0.00000000E+00
  2063 0.00000000E+00
  2064 0.00000000E+00
  2065 0.00000000E+00
  2066 0.00000000E+00
  2067 0.00000000E+00
  2068 0.00000000E+00
  2069 0.00000000E+00
  2070 0.00000000E+00
  2071 0.00000000E+00
  2072 0.00000000E+00
  2073 0.00000000E+00
  2074 0.00000000E+00
  2075 0.00000000E+00
  2076 0.00000000E+00
  2077 0.00000000E+00
  2078 0.00000000E+00
  2079 0.00000000E+00
  2080 0.00000000E+00
  2081 0.00000000E+00
  2082 0.00000000E+00
  2083 0.00000000E+00
  2084 0.00000000E+00
  2085 0.00000000E+00
  2086 0.00000000E+00
  2087 0.00000000E+00
  2088 0.00000000E+00
  2089 0.00000000E+00
  2090 0.00000000E+00
  2091 0.00000000E+00
  2092 0.00000000E+00
  2093 0.00000000E+00
  2094 0.00000000E+00
  2095 0.00000000E+00
  2096 0.00000000E+00
  2097 0.00000000E+00
  2098 0.00000000E+00
  2099 0.00000000E+00
  2100 0.00000000E+00
  2101 0.00000000E+00
  2102 0.00000000E+00
  2103 0.00000000E+00
  2104 0.00000000E+00
  2105 0.00000000E+00
  2106 0.00000000E+00
  2107 0.00000000E+00
  2108 0.00000000E+00
  2109 0.00000000E+00
  2110 0.00000000E+00
  2111 0.00000000E+00
  2112 0.00000000E+00
  2113 0.00000000E+00
  2114 0.00000000E+00
  2115 0.00000000E+00
  2116 0.00000000E+00
  2117 0.00000000E+00
  2118 0.00000000E+00
  2119 0.00000000E+00
  2120 0.00000000E+00
  2122 0.00000000E+00
  2123 0.00000000E+00
  2126 0.00000000E+00
  2127 0.00000000E+00
  2128 0.00000000E+00
  2129 0.00000000E+00
  2130 0.00000000E+00
  2132 0.00000000E+00
  2134 0.00000000E+00
  2135 0.00000000E+00
  2136 0.00000000E+00
  2155 0.00000000E+00
  2156 0.00000000E+00
  2588 0.00000000E+00
  2589 0.00000000E+00
  2590 0.00000000E+00
  2591 0.00000000E+00
  2592 0.00000000E+00
  2593 0.00000000E+00
  2594 0.00000000E+00
  2595 0.00000000E+00
  2596 0.00000000E+00
  2597 0.00000000E+00
  2598 0.00000000E+00
  2599 0.00000000E+00
  2600 0.00000000E+00
  2601 0.00000000E+00
  2602 0.00000000E+00
  2603 0.00000000E+00
  2604 0.00000000E+00
  2605 0.00000000E+00
  2606 0.00000000E+00
  2607 0.00000000E+00
  2608 0.00000000E+00
  2609 0.00000000E+00
  2610 0.00000000E+00
  2611 0.00000000E+00
  2612 0.00000000E+00
  2613 0.00000000E+00
  2614 0.00000000E+00
  2615 0.00000000E+00
  2616 0.00000000E+00
  2617 0.00000000E+00
  2618 0.00000000E+00
  2619 0.00000000E+00
  2620 0.00000000E+00
  2621 0.00000000E+00
  2622 0.00000000E+00
  2623 0.00000000E+00
  2624 0.00000000E+00
  2625 0.00000000E+00
  2626 0.00000000E+00
  2627 0.00000000E+00
  2628 0.00000000E+00
  2629 0.00000000E+00
  2630 0.00000000E+00
  2631 0.00000000E+00
  2632 0.00000000E+00
  2633 0.00000000E+00
  2634 0.00000000E+00
  2635 0.00000000E+00
  2636 0.00000000E+00
  2637 0.00000000E+00
  2638 0.00000000E+00
  2639 0.00000000E+00
  2640 0.00000000E+00
  2641 0.00000000E+00
  2642 0.00000000E+00
  2643 0.00000000E+00
  2644 0.00000000E+00
  2645 0.00000000E+00
  2646 0.00000000E+00
  2647 0.00000000E+00
  2648 0.00000000E+00
  2649 0.00000000E+00
  2650 0.00000000E+00
  2651 0.00000000E+00
  2652 0.00000000E+00
  2653 0.00000000E+00
  2654 0.00000000E+00
  2655 0.00000000E+00
  2656 0.00000000E+00
  2657 0.00000000E+00
  2658 0.00000000E+00
  2659 0.00000000E+00
  2660 0.00000000E+00
  2661 0.00000000E+00
  2662 0.00000000E+00
  2663 0.00000000E+00
  2664 0.00000000E+00
  2665 0.00000000E+00
  2666 0.00000000E+00
  2667 0.00000000E+00
  2668 0.00000000E+00
  2669 0.00000000E+00
  2670 0.00000000E+00
  2671 0.00000000E+00
  2672 0.00000000E+00
  2673 0.00000000E+00
  2674 0.00000000E+00
  2675 0.00000000E+00
  2676 0.00000000E+00
  2677 0.00000000E+00
  2678 0.00000000E+00
  2679 0.00000000E+00
  2680 0.00000000E+00
  2681 0.00000000E+00
  2682 0.00000000E+00
  2683 0.00000000E+00
  2684 0.00000000E+00
  2685 0.00000000E+00
  2686 0.00000000E+00
  2687 0.00000000E+00
  2688 0.00000000E+00
  2689 0.00000000E+00
  2690 0.00000000E+00
  2691 0.00000000E+00
  2692 0.00000000E+00
  2693 0.00000000E+00
  2694 0.00000000E+00
  2695 0.00000000E+00
  2696 0.00000000E+00
  2697 0.00000000E+00
  2698 0.00000000E+00
  2699 0.00000000E+00
  2700 0.00000000E+00
  2702 0.00000000E+00
  2703 0.00000000E+00
  2704 0.00000000E+00
  2705 0.00000000E+00
  2706 0.00000000E+00
  2707 0.00000000E+00
  2708 0.00000000E+00
  2709 0.00000000E+00
  2711 0.00000000E+00
  2713 0.00000000E+00
  2714 0.00000000E+00
  2715 0.00000000E+00
  2716 0.00000000E+00
  2718 0.00000000E+00
  3182 0.00000000E+00
  3183 0.00000000E+00
  3184 0.00000000E+00
  3185 0.00000000E+00
  3186 0.00000000E+00
  3187 0.00000000E+00
  3188 0.00000000E+00
  3189 0.00000000E+00
  3190 0.00000000E+00
  3191 0.00000000E+00
  3192 0.00000000E+00
  3193 0.00000000E+00
  3194 0.00000000E+00
  3195 0.00000000E+00
  3196 0.00000000E+00
  3197 0.00000000E+00
  3198 0.00000000E+00
  3199 0.00000000E+00
  3200 0.00000000E+00
  3201 0.00000000E+00
  3202 0.00000000E+00
  3203 0.00000000E+00
  3204 0.00000000E+00
  3205 0.00000000E+00
  3207 0.00000000E+00
  3208 0.00000000E+00
  3214 0.00000000E+00
  3215 0.00000000E+00
  3216 0.00000000E+00
  3217 0.00000000E+00
  3218 0.00000000E+00
  3219 0.00000000E+00
  3220 0.00000000E+00
  3221 0.00000000E+00
  3224 0.00000000E+00
  3225 0.00000000E+00
  3226 0.00000000E+00
  3227 0.00000000E+00
  3228 0.00000000E+00
  3229 0.00000000E+00
  3230 0.00000000E+00
  3231 0.00000000E+00
  3232 0.00000000E+00
  3233 0.00000000E+00
  3248 0.00000000E+00
  3249 0.00000000E+00
  3250 0.00000000E+00
  3258 0.00000000E+00
  3717 0.00000000E+00
  3718 0.00000000E+00
  3719 0.00000000E+00
  3720 0.00000000E+00
  3721 0.00000000E+00
  3722 0.00000000E+00
  3723 0.00000000E+00
  3724 0.00000000E+00
  3725 0.00000000E+00
  3726 0.00000000E+00
  3727 0.00000000E+00
  3728 0.00000000E+00
  3729 0.00000000E+00
  3730 0.00000000E+00
  3731 0.00000000E+00
  3732 0.00000000E+00
  3733 0.00000000E+00
  3734 0.00000000E+00
  3735 0.00000000E+00
  3736 0.00000000E+00
  3737 0.00000000E+00
  3738 0.00000000E+00
  3740 0.00000000E+00
  3741 0.00000000E+00
  4360 0.00000000E+00
  4361 0.00000000E+00
  4362 0.00000000E+00
  4363 0.00000000E+00
  4364 0.00000000E+00
  4365 0.00000000E+00
  4366 0.00000000E+00
  4367 0.00000000E+00
  4368 0.00000000E+00
  4369 0.00000000E+00
  4370 0.00000000E+00
  4371 0.00000000E+00
  4372 0.00000000E+00
  4373 0.00000000E+00
  4374 0.00000000E+00
  4375 0.00000000E+00
  4376 0.00000000E+00
  4377 0.00000000E+00
  4378 0.00000000E+00
  4379 0.00000000E+00
  4380 0.00000000E+00
  5140 0.00000000E+00
  5141 0.00000000E+00
  5142 0.00000000E+00
  5143 0.00000000E+00
  5144 0.00000000E+00
  5145 0.00000000E+00
  5146 0.00000000E+00
  5147 0.00000000E+00
  5148 0.00000000E+00
  5149 0.00000000E+00
  5150 0.00000000E+00
  5151 0.00000000E+00
  5152 0.00000000E+00
  5153 0.00000000E+00
  5154 0.00000000E+00
  5155 0.00000000E+00
  5156 0.00000000E+00
  5804 0.00000000E+00
  5805 0.00000000E+00
  5806 0.00000000E+00
  5807 0.00000000E+00
  5808 0.00000000E+00
  5809 0.00000000E+00
  5810 0.00000000E+00
  5811 0.00000000E+00
  5812 0.00000000E+00
  5813 0.00000000E+00
  5814 0.00000000E+00
  5815 0.00000000E+00
  5816 0.00000000E+00
  5817 0.00000000E+00
  5818 0.00000000E+00
  5819 0.00000000E+00
  5820 0.00000000E+00
  6441 0.00000000E+00
  6442 0.00000000E+00
  6443 0.00000000E+00
  6444 0.00000000E+00
  6445 0.00000000E+00
  6446 0.00000000E+00
  6447 0.00000000E+00
  6448 0.00000000E+00
  6449 0.00000000E+00
  6450 0.00000000E+00
  6451 0.00000000E+00
  6452 0.00000000E+00
  6453 0.00000000E+00
  6454 0.00000000E+00
  6455 0.00000000E+00
  6888 0.00000000E+00
  6889 0.00000000E+00
  6890 0.00000000E+00
  6891 0.00000000E+00
  6892 0.00000000E+00
  6893 0.00000000E+00
  6894 0.00000000E+00
  6895 0.00000000E+00
  6896 0.00000000E+00
  6897 0.00000000E+00
  6898 0.00000000E+00
  6899 0.00000000E+00
  6900 0.00000000E+00
  6901 0.00000000E+00
  7282 0.00000000E+00
  7283 0.00000000E+00
  7284 0.00000000E+00
  7285 0.00000000E+00
  7286 0.00000000E+00
  7287 0.00000000E+00
  7288 0.00000000E+00
  7289 0.00000000E+00
  7290 0.00000000E+00
  7291 0.00000000E+00
  7292 0.00000000E+00
  7294 0.00000000E+00
  7295 0.00000000E+00
  7648 0.00000000E+00
  7649 0.00000000E+00
  7650 0.00000000E+00
  7651 0.00000000E+00
  7652 0.00000000E+00
  7653 0.00000000E+00
  7654 0.00000000E+00
  8224 0.00000000E+00
  8225 0.00000000E+00
  8226 0.00000000E+00
  8227 0.00000000E+00
  8228 0.00000000E+00
  8229 0.00000000E+00
  8230 0.00000000E+00
  8768 0.00000000E+00
  8769 0.00000000E+00
  8770 0.00000000E+00
  8771 0.00000000E+00
  8772 0.00000000E+00
  8773 0.00000000E+00
  8774 0.00000000E+00
  8775 0.00000000E+00
  9255 0.00000000E+00
  9256 0.00000000E+00
  9257 0.00000000E+00
  9258 0.00000000E+00
  9259 0.00000000E+00
  9260 0.00000000E+00
  9261 0.00000000E+00
  9262 0.00000000E+00
  9263 0.00000000E+00
  9264 0.00000000E+00
  9265 0.00000000E+00
  9266 0.00000000E+00
  9267 0.00000000E+00
  9268 0.00000000E+00
  9269 0.00000000E+00
  9270 0.00000000E+00
  9271 0.00000000E+00
  9272 0.00000000E+00
  9273 0.00000000E+00
  9274 0.00000000E+00
  9275 0.00000000E+00
  9276 0.00000000E+00
  9277 0.00000000E+00
  9278 0.00000000E+00
  9279 0.00000000E+00
  9280 0.00000000E+00
  9281 0.00000000E+00
  9282 0.00000000E+00
  9283 0.00000000E+00
  9284 0.00000000E+00
  9285 0.00000000E+00
  9286 0.00000000E+00
  9287 0.00000000E+00
  9288 0.00000000E+00
  9289 0.00000000E+00
  9290 0.00000000E+00
  9291 0.00000000E+00
  9292 0.00000000E+00
  9293 0.00000000E+00
  9294 0.00000000E+00
  9295 0.00000000E+00
  9296 0.00000000E+00
  9297 0.00000000E+00
  9298 0.00000000E+00
  9299 0.00000000E+00
  9300 0.00000000E+00
  9301 0.00000000E+00
  9302 0.00000000E+00
  9303 0.00000000E+00
  9984 0.00000000E+00
  9985 0.00000000E+00
  9986 0.00000000E+00
  9987 0.00000000E+00
  9988 0.00000000E+00
  9989 0.00000000E+00
  9990 0.00000000E+00
  9991 0.00000000E+00
  9992 0.00000000E+00
  9993 0.00000000E+00
  9994 0.00000000E+00
  9995 0.00000000E+00
  9996 0.00000000E+00
  9997 0.00000000E+00
  9998 0.00000000E+00
  9999 0.00000000E+00
  10000 0.00000000E+00
  10001 0.00000000E+00
  10002 0.00000000E+00
  10003 0.00000000E+00
  10004 0.00000000E+00
  10005 0.00000000E+00
  10006 0.00000000E+00
  10007 0.00000000E+00
  10008 0.00000000E+00
  10009 0.00000000E+00
  10010 0.00000000E+00
  10011 0.00000000E+00
  10012 0.00000000E+00
  10013 0.00000000E+00
  10014 0.00000000E+00
  10015 0.00000000E+00
  10016 0.00000000E+00
  10017 0.00000000E+00
  10018 0.00000000E+00
  10019 0.00000000E+00
  10020 0.00000000E+00
  10021 0.00000000E+00
  10022 0.00000000E+00
  10023 0.00000000E+00
  10024 0.00000000E+00
  10025 0.00000000E+00
  10026 0.00000000E+00
  10027 0.00000000E+00
  10028 0.00000000E+00
  10029 0.00000000E+00
  10030 0.00000000E+00
  10031 0.00000000E+00
  10032 0.00000000E+00
  10033 0.00000000E+00
  10034 0.00000000E+00
  10035 0.00000000E+00
  10036 0.00000000E+00
  10037 0.00000000E+00
  10038 0.00000000E+00
  10039 0.00000000E+00
  10040 0.00000000E+00
  10041 0.00000000E+00
  10042 0.00000000E+00
  10043 0.00000000E+00
  10044 0.00000000E+00
  10045 0.00000000E+00
  10046 0.00000000E+00
  10047 0.00000000E+00
  10048 0.00000000E+00
  10049 0.00000000E+00
  10050 0.00000000E+00
  10051 0.00000000E+00
  10052 0.00000000E+00
  10053 0.00000000E+00
  10054 0.00000000E+00
  10055 0.00000000E+00
  10056 0.00000000E+00
  10057 0.00000000E+00
  10058 0.00000000E+00
  10059 0.00000000E+00
  10060 0.00000000E+00
  10061 0.00000000E+00
  10062 0.00000000E+00
  10063 0.00000000E+00
  10064 0.00000000E+00
  10065 0.00000000E+00
  10066 0.00000000E+00
  10067 0.00000000E+00
  10068 0.00000000E+00
  10793 0.00000000E+00
  10794 0.00000000E+00
  10795 0.00000000E+00
  10796 0.00000000E+00
  10797 0.00000000E+00
  10798 0.00000000E+00
  10799 0.00000000E+00
  10800 0.00000000E+00
  10801 0.00000000E+00
  10802 0.00000000E+00
  10803 0.00000000E+00
  10804 0.00000000E+00
  10805 0.00000000E+00
  10806 0.00000000E+00
  10807 0.00000000E+00
  10808 0.00000000E+00
  10809 0.00000000E+00
  10810 0.00000000E+00
  10811 0.00000000E+00
  10812 0.00000000E+00
  10813 0.00000000E+00
  10814 0.00000000E+00
  10815 0.00000000E+00
  10816 0.00000000E+00
  10817 0.00000000E+00
  10818 0.00000000E+00
  10819 0.00000000E+00
  10820 0.00000000E+00
  10821 0.00000000E+00
  10822 0.00000000E+00
  10823 0.00000000E+00
  10824 0.00000000E+00
  10825 0.00000000E+00
  10826 0.00000000E+00
  10827 0.00000000E+00
  11486 0.00000000E+00
  11487 0.00000000E+00
  11488 0.00000000E+00
  11489 0.00000000E+00
  11490 0.00000000E+00
  11491 0.00000000E+00
  11492 0.00000000E+00
  11493 0.00000000E+00
  12051 0.00000000E+00
  12052 0.00000000E+00
  12053 0.00000000E+00
  12508 0.00000000E+00
  12509 0.00000000E+00
  12510 0.00000000E+00
  12511 0.00000000E+00
  12513 0.00000000E+00
  13049 0.00000000E+00
  13050 0.00000000E+00
  13051 0.00000000E+00
  13052 0.00000000E+00
  13053 0.00000000E+00
  13054 0.00000000E+00
  13055 0.00000000E+00
  13056 0.00000000E+00
  13058 0.00000000E+00
  13067 0.00000000E+00
  13072 0.00000000E+00
  13648 0.00000000E+00
  13649 0.00000000E+00
  13650 0.00000000E+00
  13651 0.00000000E+00
  13652 0.00000000E+00
  13653 0.00000000E+00
  13654 0.00000000E+00
  13655 0.00000000E+00
  14160 0.00000000E+00
  14161 0.00000000E+00
  14162 0.00000000E+00
  14163 0.00000000E+00
  14164 0.00000000E+00
  14165 0.00000000E+00
  14728 0.00000000E+00
  14729 0.00000000E+00
  14730 0.00000000E+00
  14731 0.00000000E+00
  15093 0.00000000E+00
  15094 0.00000000E+00
  15095 0.00000000E+00
  15096 0.00000000E+00
  15484 0.00000000E+00
  15485 0.00000000E+00
  15898 0.00000000E+00
  59724 0.00000000E+00
  59725 0.00000000E+00
  59726 0.00000000E+00
  59727 0.00000000E+00
  59728 0.00000000E+00
  59729 0.00000000E+00
  59730 0.00000000E+00
  59731 0.00000000E+00
  59732 0.00000000E+00
  59733 0.00000000E+00
  59734 0.00000000E+00
  59735 0.00000000E+00
  59736 0.00000000E+00
  59737 0.00000000E+00
  59738 0.00000000E+00
  59739 0.00000000E+00
  59740 0.00000000E+00
  59741 0.00000000E+00
  59742 0.00000000E+00
  59743 0.00000000E+00
  59744 0.00000000E+00
  59745 0.00000000E+00
  59746 0.00000000E+00
  59747 0.00000000E+00
  59748 0.00000000E+00
  59749 0.00000000E+00
  59750 0.00000000E+00
  59751 0.00000000E+00
  59752 0.00000000E+00
  59753 0.00000000E+00
  59754 0.00000000E+00
  59755 0.00000000E+00
  59756 0.00000000E+00
  59757 0.00000000E+00
  59758 0.00000000E+00
  59759 0.00000000E+00
  59760 0.00000000E+00
  59761 0.00000000E+00
  59762 0.00000000E+00
  59763 0.00000000E+00