# File generated by Flopy version 3.9.1 on 04/13/2026 at 16:45:41.
BEGIN options
  SAVE_FLOWS
END options

BEGIN dimensions
  MAXBOUND  58381
  NSEG  1
END dimensions

BEGIN period  1
  205       6.00000000  6.36829591E-09       2.00000000
  222       3.00000000  6.36829591E-09       2.00000000
  224       3.00000000  6.36829591E-09       2.00000000
  225       3.00000000  6.36829591E-09       2.00000000
  228       3.00000000  6.36829591E-09       2.00000000
  357       4.00000000  6.42327533E-09       2.00000000
  358       4.00000000  6.42327533E-09       2.00000000
  359       4.00000000  6.42327533E-09       2.00000000
  371       6.00000000  6.42327533E-09       2.00000000
  372       6.00000000  6.42327533E-09       2.00000000
  373       6.00000000  6.42327533E-09       2.00000000
  375       6.00000000  6.42327533E-09       2.00000000
  376       6.00000000  6.42327533E-09       2.00000000
  377       6.00000000  6.42327533E-09       2.00000000
  378       6.00000000  6.42327533E-09       2.00000000
  380       5.00000000  6.36829591E-09       2.00000000
  381       5.00000000  6.36829591E-09       2.00000000
  382       5.00000000  6.36829591E-09       2.00000000
  383       5.00000000  6.36829591E-09       2.00000000
  384       5.00000000  6.36829591E-09       2.00000000
  385       5.00000000  6.36829591E-09       2.00000000
  386       5.00000000  6.36829591E-09       2.00000000
  387       5.00000000  6.36829591E-09       2.00000000
  388       5.00000000  6.36829591E-09       2.00000000
  389       5.00000000  6.36829591E-09       2.00000000
  390       5.00000000  6.36829591E-09       2.00000000
  391       5.00000000  6.36829591E-09       2.00000000
  392       5.00000000  6.36829591E-09       2.00000000
  393       5.00000000  6.36829591E-09       2.00000000
  394       5.00000000  6.36829591E-09       2.00000000
  395       5.00000000  6.36829591E-09       2.00000000
  396       5.00000000  6.36829591E-09       2.00000000
  397       5.00000000  6.36829591E-09       2.00000000
  398       5.00000000  6.36829591E-09       2.00000000
  399       5.00000000  6.36829591E-09       2.00000000
  400       5.00000000  6.36829591E-09       2.00000000
  401       2.00000000  6.36829591E-09       2.00000000
  402       2.00000000  6.36829591E-09       2.00000000
  403       2.00000000  6.36829591E-09       2.00000000
  404       2.00000000  6.36829591E-09       2.00000000
  405       2.00000000  6.36829591E-09       2.00000000
  406       2.00000000  6.36829591E-09       2.00000000
  407       2.00000000  6.36829591E-09       2.00000000
  408       2.00000000  6.36829591E-09       2.00000000
  409       2.00000000  6.36829591E-09       2.00000000
  410       2.00000000  6.36829591E-09       2.00000000
  411       2.00000000  6.36829591E-09       2.00000000
  412       2.00000000  6.36829591E-09       2.00000000
  413       2.00000000  6.36829591E-09       2.00000000
  414       2.00000000  6.36829591E-09       2.00000000
  415       2.00000000  6.36829591E-09       2.00000000
  416       2.00000000  6.36829591E-09       2.00000000
  417       2.00000000  6.36829591E-09       2.00000000
  418       2.00000000  6.36829591E-09       2.00000000
  419       2.00000000  6.36829591E-09       2.00000000
  420       2.00000000  6.36829591E-09       2.00000000
  421       2.00000000  6.36829591E-09       2.00000000
  422       2.00000000  6.36829591E-09       2.00000000
  423       2.00000000  6.36829591E-09       2.00000000
  424       2.00000000  6.36829591E-09       2.00000000
  425       2.00000000  6.36829591E-09       2.00000000
  426       5.00000000  6.36829591E-09       2.00000000
  428       5.00000000  6.36829591E-09       2.00000000
  429       5.00000000  6.36829591E-09       2.00000000
  432       5.00000000  6.36829591E-09       2.00000000
  434       5.00000000  6.36829591E-09       2.00000000
  435       5.00000000  6.36829591E-09       2.00000000
  456       4.00000000  6.29783582E-09       2.00000000
  459       4.00000000  6.29783582E-09       2.00000000
  460       4.00000000  6.29783582E-09       2.00000000
  508       5.00000000  6.73815699E-09       2.00000000
  513       8.00000000  6.73815699E-09       2.00000000
  514       8.00000000  6.73815699E-09       2.00000000
  515       8.00000000  6.73815699E-09       2.00000000
  516       8.00000000  6.73815699E-09       2.00000000
  517       8.00000000  6.73815699E-09       2.00000000
  518       8.00000000  6.73815699E-09       2.00000000
  520       7.00000000  6.73815699E-09       2.00000000
  521       7.00000000  6.73815699E-09       2.00000000
  522       7.00000000  6.73815699E-09       2.00000000
  551       0.00000000  6.53426570E-09       2.00000000
  552       0.00000000  6.53426570E-09       2.00000000
  553       0.00000000  6.53426570E-09       2.00000000
  554       0.00000000  6.53426570E-09       2.00000000
  555       0.00000000  6.53426570E-09       2.00000000
  556       0.00000000  6.53426570E-09       2.00000000
  560       7.00000000  6.42327533E-09       2.00000000
  561       7.00000000  6.42327533E-09       2.00000000
  562       7.00000000  6.42327533E-09       2.00000000
  563       7.00000000  6.42327533E-09       2.00000000
  564       7.00000000  6.42327533E-09       2.00000000
  565       7.00000000  6.42327533E-09       2.00000000
  566       7.00000000  6.42327533E-09       2.00000000
  567       7.00000000  6.42327533E-09       2.00000000
  568       7.00000000  6.42327533E-09       2.00000000
  569       7.00000000  6.42327533E-09       2.00000000
  570       7.00000000  6.42327533E-09       2.00000000
  571       7.00000000  6.42327533E-09       2.00000000
  572       7.00000000  6.42327533E-09       2.00000000
  574       8.00000000  6.42327533E-09       2.00000000
  575       8.00000000  6.42327533E-09       2.00000000
  576       8.00000000  6.42327533E-09       2.00000000
  577       8.00000000  6.42327533E-09       2.00000000
  578       8.00000000  6.42327533E-09       2.00000000
  579       8.00000000  6.42327533E-09       2.00000000
  580       8.00000000  6.42327533E-09       2.00000000
  581       8.00000000  6.42327533E-09       2.00000000
  582       8.00000000  6.42327533E-09       2.00000000
  583       8.00000000  6.42327533E-09       2.00000000
  584       8.00000000  6.42327533E-09       2.00000000
  585       8.00000000  6.42327533E-09       2.00000000
  586       8.00000000  6.42327533E-09       2.00000000
  587       8.00000000  6.42327533E-09       2.00000000
  588       8.00000000  6.42327533E-09       2.00000000
  589       8.00000000  6.42327533E-09       2.00000000
  590       8.00000000  6.42327533E-09       2.00000000
  591       8.00000000  6.42327533E-09       2.00000000
  592       8.00000000  6.42327533E-09       2.00000000
  593       8.00000000  6.42327533E-09       2.00000000
  594       8.00000000  6.42327533E-09       2.00000000
  595       8.00000000  6.42327533E-09       2.00000000
  596       8.00000000  6.42327533E-09       2.00000000
  597       8.00000000  6.42327533E-09       2.00000000
  598       8.00000000  6.42327533E-09       2.00000000
  599       8.00000000  6.42327533E-09       2.00000000
  600       8.00000000  6.42327533E-09       2.00000000
  601       8.00000000  6.42327533E-09       2.00000000
  602       8.00000000  6.42327533E-09       2.00000000
  603       8.00000000  6.42327533E-09       2.00000000
  604       8.00000000  6.42327533E-09       2.00000000
  605       8.00000000  6.42327533E-09       2.00000000
  606       8.00000000  6.42327533E-09       2.00000000
  607       8.00000000  6.42327533E-09       2.00000000
  608       8.00000000  6.42327533E-09       2.00000000
  609       8.00000000  6.42327533E-09       2.00000000
  610       8.00000000  6.42327533E-09       2.00000000
  611       8.00000000  6.42327533E-09       2.00000000
  612       8.00000000  6.42327533E-09       2.00000000
  613       8.00000000  6.42327533E-09       2.00000000
  614       8.00000000  6.42327533E-09       2.00000000
  615       8.00000000  6.42327533E-09       2.00000000
  616       8.00000000  6.42327533E-09       2.00000000
  617       8.00000000  6.42327533E-09       2.00000000
  618       8.00000000  6.42327533E-09       2.00000000
  619       8.00000000  6.42327533E-09       2.00000000
  620       8.00000000  6.42327533E-09       2.00000000
  621       8.00000000  6.42327533E-09       2.00000000
  622       8.00000000  6.42327533E-09       2.00000000
  623       8.00000000  6.42327533E-09       2.00000000
  624       8.00000000  6.42327533E-09       2.00000000
  625       8.00000000  6.42327533E-09       2.00000000
  626       8.00000000  6.42327533E-09       2.00000000
  627       8.00000000  6.42327533E-09       2.00000000
  628       8.00000000  6.42327533E-09       2.00000000
  629       8.00000000  6.42327533E-09       2.00000000
  630       8.00000000  6.42327533E-09       2.00000000
  631       8.00000000  6.42327533E-09       2.00000000
  632       8.00000000  6.42327533E-09       2.00000000
  633       8.00000000  6.42327533E-09       2.00000000
  634       8.00000000  6.42327533E-09       2.00000000
  635       8.00000000  6.42327533E-09       2.00000000
  636       8.00000000  6.42327533E-09       2.00000000
  637       8.00000000  6.42327533E-09       2.00000000
  638       8.00000000  6.42327533E-09       2.00000000
  639       8.00000000  6.42327533E-09       2.00000000
  640       8.00000000  6.42327533E-09       2.00000000
  641       8.00000000  6.42327533E-09       2.00000000
  642       8.00000000  6.42327533E-09       2.00000000
  643       8.00000000  6.42327533E-09       2.00000000
  644       8.00000000  6.42327533E-09       2.00000000
  645       8.00000000  6.42327533E-09       2.00000000
  646       8.00000000  6.42327533E-09       2.00000000
  647       4.00000000  6.36829591E-09       2.00000000
  648       4.00000000  6.36829591E-09       2.00000000
  649       4.00000000  6.36829591E-09       2.00000000
  650       4.00000000  6.36829591E-09       2.00000000
  651       4.00000000  6.36829591E-09       2.00000000
  652       4.00000000  6.36829591E-09       2.00000000
  653       4.00000000  6.36829591E-09       2.00000000
  654       4.00000000  6.36829591E-09       2.00000000
  655       4.00000000  6.36829591E-09       2.00000000
  656       4.00000000  6.36829591E-09       2.00000000
  657       4.00000000  6.36829591E-09       2.00000000
  658       4.00000000  6.36829591E-09       2.00000000
  659       4.00000000  6.36829591E-09       2.00000000
  660       4.00000000  6.36829591E-09       2.00000000
  661       4.00000000  6.36829591E-09       2.00000000
  662       4.00000000  6.36829591E-09       2.00000000
  663       4.00000000  6.36829591E-09       2.00000000
  664       4.00000000  6.36829591E-09       2.00000000
  665       4.00000000  6.36829591E-09       2.00000000
  666       4.00000000  6.36829591E-09       2.00000000
  667       4.00000000  6.36829591E-09       2.00000000
  668       4.00000000  6.36829591E-09       2.00000000
  669       5.00000000  6.36829591E-09       2.00000000
  670       5.00000000  6.36829591E-09       2.00000000
  671       5.00000000  6.36829591E-09       2.00000000
  672       5.00000000  6.36829591E-09       2.00000000
  673       5.00000000  6.36829591E-09       2.00000000
  674       5.00000000  6.36829591E-09       2.00000000
  675       5.00000000  6.36829591E-09       2.00000000
  676       5.00000000  6.36829591E-09       2.00000000
  677       5.00000000  6.36829591E-09       2.00000000
  678       5.00000000  6.36829591E-09       2.00000000
  679       5.00000000  6.36829591E-09       2.00000000
  680       5.00000000  6.36829591E-09       2.00000000
  681       5.00000000  6.36829591E-09       2.00000000
  682       5.00000000  6.36829591E-09       2.00000000
  683       5.00000000  6.36829591E-09       2.00000000
  684       5.00000000  6.36829591E-09       2.00000000
  685       5.00000000  6.36829591E-09       2.00000000
  686       5.00000000  6.36829591E-09       2.00000000
  687       5.00000000  6.36829591E-09       2.00000000
  688       6.00000000  6.36829591E-09       2.00000000
  689       6.00000000  6.36829591E-09       2.00000000
  690       6.00000000  6.36829591E-09       2.00000000
  691       6.00000000  6.36829591E-09       2.00000000
  692       6.00000000  6.36829591E-09       2.00000000
  693       6.00000000  6.36829591E-09       2.00000000
  694       6.00000000  6.36829591E-09       2.00000000
  695       6.00000000  6.36829591E-09       2.00000000
  696       6.00000000  6.36829591E-09       2.00000000
  697       6.00000000  6.36829591E-09       2.00000000
  698       5.00000000  6.29783582E-09       2.00000000
  699       5.00000000  6.29783582E-09       2.00000000
  700       5.00000000  6.29783582E-09       2.00000000
  701       5.00000000  6.29783582E-09       2.00000000
  702       5.00000000  6.29783582E-09       2.00000000
  703       5.00000000  6.29783582E-09       2.00000000
  704       5.00000000  6.29783582E-09       2.00000000
  705       5.00000000  6.29783582E-09       2.00000000
  706       5.00000000  6.29783582E-09       2.00000000
  707       5.00000000  6.29783582E-09       2.00000000
  708      11.00000000  6.29783582E-09       2.00000000
  709      13.00000000  6.29783582E-09       2.00000000
  803       3.00000000  6.97366392E-09       2.00000000
  806       3.00000000  6.97366392E-09       2.00000000
  807       3.00000000  6.97366392E-09       2.00000000
  808       3.00000000  6.97366392E-09       2.00000000
  809       3.00000000  6.97366392E-09       2.00000000
  810       3.00000000  6.97366392E-09       2.00000000
  811       3.00000000  6.97366392E-09       2.00000000
  812       3.00000000  6.97366392E-09       2.00000000
  813       3.00000000  6.97366392E-09       2.00000000
  814       3.00000000  6.97366392E-09       2.00000000
  815       3.00000000  6.97366392E-09       2.00000000
  818       3.00000000  6.97366392E-09       2.00000000
  819       3.00000000  7.09482627E-09       2.00000000
  820       3.00000000  7.09482627E-09       2.00000000
  821       3.00000000  7.09482627E-09       2.00000000
  822       3.00000000  7.09482627E-09       2.00000000
  823       3.00000000  7.09482627E-09       2.00000000
  824       3.00000000  6.97366392E-09       2.00000000
  825       3.00000000  7.09482627E-09       2.00000000
  826       3.00000000  6.97366392E-09       2.00000000
  827       3.00000000  7.09482627E-09       2.00000000
  828       3.00000000  7.09482627E-09       2.00000000
  829       3.00000000  7.09482627E-09       2.00000000
  830       3.00000000  7.09482627E-09       2.00000000
  831       3.00000000  7.09482627E-09       2.00000000
  840       4.00000000  7.09482627E-09       2.00000000
  841       4.00000000  7.09482627E-09       2.00000000
  842       4.00000000  7.09482627E-09       2.00000000
  843       4.00000000  7.09482627E-09       2.00000000
  844       4.00000000  7.09482627E-09       2.00000000
  845       4.00000000  7.09482627E-09       2.00000000
  846       4.00000000  7.09482627E-09       2.00000000
  847       4.00000000  7.09482627E-09       2.00000000
  848       4.00000000  7.09482627E-09       2.00000000
  849       4.00000000  7.09482627E-09       2.00000000
  850       4.00000000  7.09482627E-09       2.00000000
  861       0.00000000  7.09482627E-09       2.00000000
  862       0.00000000  7.09482627E-09       2.00000000
  863       0.00000000  7.09482627E-09       2.00000000
  864       0.00000000  7.09482627E-09       2.00000000
  865       0.00000000  7.09482627E-09       2.00000000
  866       0.00000000  7.09482627E-09       2.00000000
  869       0.00000000  7.09482627E-09       2.00000000
  870       0.00000000  7.09482627E-09       2.00000000
  871       0.00000000  7.09482627E-09       2.00000000
  872       0.00000000  7.09482627E-09       2.00000000
  873       0.00000000  7.09482627E-09       2.00000000
  874       0.00000000  7.09482627E-09       2.00000000
  875       0.00000000  7.09482627E-09       2.00000000
  876       0.00000000  7.09482627E-09       2.00000000
  877       0.00000000  7.09482627E-09       2.00000000
  878       0.00000000  7.09482627E-09       2.00000000
  879       0.00000000  7.09482627E-09       2.00000000
  880       0.00000000  7.09482627E-09       2.00000000
  881       0.00000000  7.09482627E-09       2.00000000
  882       0.00000000  7.09482627E-09       2.00000000
  883       0.00000000  7.09482627E-09       2.00000000
  884       0.00000000  7.09482627E-09       2.00000000
  885       0.00000000  7.09482627E-09       2.00000000
  886       0.00000000  6.73815699E-09       2.00000000
  887       0.00000000  7.09482627E-09       2.00000000
  888       0.00000000  7.09482627E-09       2.00000000
  889       0.00000000  7.09482627E-09       2.00000000
  890       0.00000000  7.09482627E-09       2.00000000
  891       0.00000000  7.09482627E-09       2.00000000
  892       0.00000000  6.73815699E-09       2.00000000
  893       0.00000000  7.09482627E-09       2.00000000
  894       0.00000000  7.09482627E-09       2.00000000
  895       0.00000000  7.09482627E-09       2.00000000
  896       0.00000000  7.09482627E-09       2.00000000
  897       0.00000000  6.73815699E-09       2.00000000
  898       0.00000000  6.73815699E-09       2.00000000
  899       0.00000000  6.73815699E-09       2.00000000
  900       0.00000000  6.73815699E-09       2.00000000
  901       4.00000000  6.73815699E-09       2.00000000
  902       4.00000000  6.73815699E-09       2.00000000
  903       4.00000000  6.73815699E-09       2.00000000
  904       4.00000000  6.73815699E-09       2.00000000
  905       4.00000000  6.73815699E-09       2.00000000
  906       4.00000000  6.73815699E-09       2.00000000
  907       4.00000000  6.73815699E-09       2.00000000
  908       4.00000000  6.73815699E-09       2.00000000
  909       4.00000000  6.73815699E-09       2.00000000
  910       4.00000000  6.73815699E-09       2.00000000
  911       4.00000000  6.73815699E-09       2.00000000
  912       4.00000000  6.73815699E-09       2.00000000
  913       4.00000000  6.73815699E-09       2.00000000
  914       4.00000000  6.73815699E-09       2.00000000
  915       4.00000000  6.73815699E-09       2.00000000
  916       4.00000000  6.73815699E-09       2.00000000
  917       4.00000000  6.73815699E-09       2.00000000
  918       4.00000000  6.73815699E-09       2.00000000
  919       4.00000000  6.73815699E-09       2.00000000
  920       4.00000000  6.73815699E-09       2.00000000
  921       4.00000000  6.73815699E-09       2.00000000
  922       4.00000000  6.73815699E-09       2.00000000
  923       4.00000000  6.73815699E-09       2.00000000
  924       4.00000000  6.73815699E-09       2.00000000
  925       4.00000000  6.73815699E-09       2.00000000
  926       4.00000000  6.73815699E-09       2.00000000
  927       4.00000000  6.73815699E-09       2.00000000
  928       4.00000000  6.73815699E-09       2.00000000
  929       4.00000000  6.73815699E-09       2.00000000
  930       4.00000000  6.73815699E-09       2.00000000
  931       4.00000000  6.73815699E-09       2.00000000
  932       4.00000000  6.73815699E-09       2.00000000
  933       4.00000000  6.73815699E-09       2.00000000
  934       4.00000000  6.73815699E-09       2.00000000
  935       4.00000000  6.73815699E-09       2.00000000
  936       4.00000000  6.73815699E-09       2.00000000
  937       4.00000000  6.73815699E-09       2.00000000
  938       4.00000000  6.73815699E-09       2.00000000
  939       4.00000000  6.73815699E-09       2.00000000
  940       4.00000000  6.73815699E-09       2.00000000
  941       4.00000000  6.73815699E-09       2.00000000
  942       4.00000000  6.73815699E-09       2.00000000
  943       4.00000000  6.73815699E-09       2.00000000
  944       5.00000000  6.73815699E-09       2.00000000
  945       5.00000000  6.73815699E-09       2.00000000
  946       5.00000000  6.73815699E-09       2.00000000
  947       5.00000000  6.73815699E-09       2.00000000
  948       5.00000000  6.73815699E-09       2.00000000
  949       5.00000000  6.73815699E-09       2.00000000
  950       5.00000000  6.73815699E-09       2.00000000
  951       5.00000000  6.73815699E-09       2.00000000
  952       5.00000000  6.73815699E-09       2.00000000
  953       5.00000000  6.73815699E-09       2.00000000
  954       5.00000000  6.73815699E-09       2.00000000
  955       5.00000000  6.73815699E-09       2.00000000
  956       5.00000000  6.73815699E-09       2.00000000
  957       5.00000000  6.73815699E-09       2.00000000
  958       5.00000000  6.73815699E-09       2.00000000
  959       5.00000000  6.73815699E-09       2.00000000
  960       5.00000000  6.73815699E-09       2.00000000
  961       5.00000000  6.73815699E-09       2.00000000
  962       5.00000000  6.73815699E-09       2.00000000
  963       5.00000000  6.73815699E-09       2.00000000
  964       5.00000000  6.73815699E-09       2.00000000
  965       5.00000000  6.73815699E-09       2.00000000
  966       5.00000000  6.73815699E-09       2.00000000
  967       5.00000000  6.73815699E-09       2.00000000
  968       5.00000000  6.73815699E-09       2.00000000
  969       5.00000000  6.73815699E-09       2.00000000
  970       2.00000000  6.53426570E-09       2.00000000
  971       2.00000000  6.53426570E-09       2.00000000
  972       2.00000000  6.53426570E-09       2.00000000
  973       2.00000000  6.53426570E-09       2.00000000
  974       2.00000000  6.53426570E-09       2.00000000
  975       2.00000000  6.53426570E-09       2.00000000
  976       2.00000000  6.53426570E-09       2.00000000
  977       5.00000000  6.53426570E-09       2.00000000
  978       5.00000000  6.53426570E-09       2.00000000
  979       5.00000000  6.53426570E-09       2.00000000
  980       5.00000000  6.53426570E-09       2.00000000
  981       5.00000000  6.53426570E-09       2.00000000
  982       5.00000000  6.53426570E-09       2.00000000
  983       5.00000000  6.53426570E-09       2.00000000
  984       5.00000000  6.53426570E-09       2.00000000
  985       5.00000000  6.53426570E-09       2.00000000
  986       5.00000000  6.53426570E-09       2.00000000
  987       5.00000000  6.53426570E-09       2.00000000
  988       5.00000000  6.53426570E-09       2.00000000
  989       5.00000000  6.53426570E-09       2.00000000
  990       5.00000000  6.53426570E-09       2.00000000
  991       5.00000000  6.53426570E-09       2.00000000
  992       5.00000000  6.53426570E-09       2.00000000
  993       1.00000000  6.53426570E-09       2.00000000
  994       1.00000000  6.53426570E-09       2.00000000
  995       1.00000000  6.53426570E-09       2.00000000
  996       1.00000000  6.53426570E-09       2.00000000
  997       6.00000000  6.42327533E-09       2.00000000
  998       6.00000000  6.42327533E-09       2.00000000
  999       6.00000000  6.42327533E-09       2.00000000
  1000       6.00000000  6.42327533E-09       2.00000000
  1001       6.00000000  6.42327533E-09       2.00000000
  1002       6.00000000  6.42327533E-09       2.00000000
  1003       6.00000000  6.42327533E-09       2.00000000
  1004       3.00000000  6.42327533E-09       2.00000000
  1005       3.00000000  6.42327533E-09       2.00000000
  1006       3.00000000  6.42327533E-09       2.00000000
  1007       3.00000000  6.42327533E-09       2.00000000
  1008       3.00000000  6.42327533E-09       2.00000000
  1009       3.00000000  6.42327533E-09       2.00000000
  1010       3.00000000  6.42327533E-09       2.00000000
  1011       3.00000000  6.42327533E-09       2.00000000
  1012       3.00000000  6.42327533E-09       2.00000000
  1013       3.00000000  6.42327533E-09       2.00000000
  1014       3.00000000  6.42327533E-09       2.00000000
  1015       3.00000000  6.42327533E-09       2.00000000
  1016       3.00000000  6.42327533E-09       2.00000000
  1017       7.00000000  6.42327533E-09       2.00000000
  1018       7.00000000  6.42327533E-09       2.00000000
  1019       7.00000000  6.42327533E-09       2.00000000
  1020       7.00000000  6.42327533E-09       2.00000000
  1021       7.00000000  6.42327533E-09       2.00000000
  1022       7.00000000  6.42327533E-09       2.00000000
  1023       7.00000000  6.42327533E-09       2.00000000
  1024       7.00000000  6.42327533E-09       2.00000000
  1025       7.00000000  6.42327533E-09       2.00000000
  1026       7.00000000  6.42327533E-09       2.00000000
  1027       7.00000000  6.42327533E-09       2.00000000
  1028       7.00000000  6.42327533E-09       2.00000000
  1029       7.00000000  6.42327533E-09       2.00000000
  1030       7.00000000  6.42327533E-09       2.00000000
  1031       7.00000000  6.42327533E-09       2.00000000
  1032       7.00000000  6.42327533E-09       2.00000000
  1033       3.00000000  6.36829591E-09       2.00000000
  1034       3.00000000  6.36829591E-09       2.00000000
  1035       3.00000000  6.36829591E-09       2.00000000
  1036       3.00000000  6.36829591E-09       2.00000000
  1037       3.00000000  6.36829591E-09       2.00000000
  1038       3.00000000  6.36829591E-09       2.00000000
  1039       3.00000000  6.36829591E-09       2.00000000
  1040       3.00000000  6.36829591E-09       2.00000000
  1041       3.00000000  6.36829591E-09       2.00000000
  1042       3.00000000  6.36829591E-09       2.00000000
  1043       3.00000000  6.36829591E-09       2.00000000
  1044       3.00000000  6.36829591E-09       2.00000000
  1045       3.00000000  6.36829591E-09       2.00000000
  1046       3.00000000  6.36829591E-09       2.00000000
  1047       3.00000000  6.36829591E-09       2.00000000
  1048       3.00000000  6.36829591E-09       2.00000000
  1049       3.00000000  6.36829591E-09       2.00000000
  1050       3.00000000  6.36829591E-09       2.00000000
  1051       3.00000000  6.36829591E-09       2.00000000
  1052       3.00000000  6.36829591E-09       2.00000000
  1053       3.00000000  6.36829591E-09       2.00000000
  1054       3.00000000  6.36829591E-09       2.00000000
  1055       3.00000000  6.36829591E-09       2.00000000
  1056       3.00000000  6.36829591E-09       2.00000000
  1057       3.00000000  6.36829591E-09       2.00000000
  1058       7.00000000  6.36829591E-09       2.00000000
  1059       7.00000000  6.36829591E-09       2.00000000
  1060       7.00000000  6.36829591E-09       2.00000000
  1061       7.00000000  6.36829591E-09       2.00000000
  1062       7.00000000  6.36829591E-09       2.00000000
  1063       7.00000000  6.36829591E-09       2.00000000
  1064       7.00000000  6.36829591E-09       2.00000000
  1065       8.00000000  6.36829591E-09       2.00000000
  1066       8.00000000  6.36829591E-09       2.00000000
  1067       8.00000000  6.36829591E-09       2.00000000
  1068       8.00000000  6.36829591E-09       2.00000000
  1069       8.00000000  6.36829591E-09       2.00000000
  1070       8.00000000  6.36829591E-09       2.00000000
  1071       8.00000000  6.36829591E-09       2.00000000
  1072       8.00000000  6.36829591E-09       2.00000000
  1073       8.00000000  6.36829591E-09       2.00000000
  1074       8.00000000  6.36829591E-09       2.00000000
  1075       8.00000000  6.36829591E-09       2.00000000
  1076       8.00000000  6.36829591E-09       2.00000000
  1077       8.00000000  6.36829591E-09       2.00000000
  1078       8.00000000  6.36829591E-09       2.00000000
  1079       8.00000000  6.36829591E-09       2.00000000
  1080       8.00000000  6.36829591E-09       2.00000000
  1081       8.00000000  6.36829591E-09       2.00000000
  1082       8.00000000  6.36829591E-09       2.00000000
  1083       8.00000000  6.36829591E-09       2.00000000
  1084       8.00000000  6.36829591E-09       2.00000000
  1085       8.00000000  6.36829591E-09       2.00000000
  1086       8.00000000  6.36829591E-09       2.00000000
  1087       7.00000000  6.29783582E-09       2.00000000
  1088       7.00000000  6.29783582E-09       2.00000000
  1089       7.00000000  6.29783582E-09       2.00000000
  1090       7.00000000  6.29783582E-09       2.00000000
  1091       7.00000000  6.29783582E-09       2.00000000
  1092       7.00000000  6.29783582E-09       2.00000000
  1093       7.00000000  6.29783582E-09       2.00000000
  1094       7.00000000  6.29783582E-09       2.00000000
  1095       7.00000000  6.29783582E-09       2.00000000
  1096       7.00000000  6.29783582E-09       2.00000000
  1097       7.00000000  6.29783582E-09       2.00000000
  1098       7.00000000  6.29783582E-09       2.00000000
  1099       7.00000000  6.29783582E-09       2.00000000
  1100       7.00000000  6.29783582E-09       2.00000000
  1101       7.00000000  6.29783582E-09       2.00000000
  1102       7.00000000  6.29783582E-09       2.00000000
  1103       7.00000000  6.29783582E-09       2.00000000
  1104       7.00000000  6.29783582E-09       2.00000000
  1105       7.00000000  6.29783582E-09       2.00000000
  1106       7.00000000  6.29783582E-09       2.00000000
  1107       7.00000000  6.29783582E-09       2.00000000
  1108       7.00000000  6.29783582E-09       2.00000000
  1109      10.00000000  6.29783582E-09       2.00000000
  1110      10.00000000  6.29783582E-09       2.00000000
  1111      10.00000000  6.29783582E-09       2.00000000
  1112      10.00000000  6.29783582E-09       2.00000000
  1113      18.00000000  6.29783582E-09       2.00000000
  1114      19.00000000  6.54073922E-09       2.00000000
  1115      15.00000000  6.54073922E-09       2.00000000
  1116      14.00000000  6.54073922E-09       2.00000000
  1181       7.00000000  6.97366392E-09       2.00000000
  1183       7.00000000  6.97366392E-09       2.00000000
  1191       7.00000000  6.56621048E-09       2.00000000
  1192       7.00000000  6.97366392E-09       2.00000000
  1193       7.00000000  6.97366392E-09       2.00000000