# File generated by Flopy version 3.9.1 on 04/13/2026 at 16:45:42.
BEGIN options
  BUDGET  FILEOUT  quadtree_caseD.cbc
  HEAD  FILEOUT  quadtree_caseD.hds
END options

BEGIN period  1
  SAVE  head  last
  SAVE  budget  last
  PRINT  budget  last
END period  1

