pcf
* control data
             restart          estimation
        10       135         1         0         1
         1         1              single               point         1
   2.000000E+01  -3.000000E+00   3.000000E-01   1.000000E-02        -7
   1.000000E+01   1.000000E+01   1.000000E-03
   1.000000E-01
        10   1.000000E-02         3         3   1.000000E-02         3
         0         0         0
* singular value decomposition
         1
  10000000    1.000000E-06
1
* parameter groups
pargp                  relative              1.0000000000E-02      0.0 switch                2.0000000000E+00      parabolic             1.0000000000E-05      5.0000000000E-01      smaller              
* parameter data
mfgw_rest             log                   factor                1.0000000000E+00      1.6666666667E-01      1.6666666667E+00      pargp                 1.0000000000E+00      0.0000000000E+00      1          
mfgw_upland           log                   factor                1.0000000000E+00      1.6666666667E-01      1.6666666667E+00      pargp                 1.0000000000E+00      0.0000000000E+00      1          
mk_rest_l1            log                   factor                1.0000000000E+00      1.1111111111E-01      2.2222222222E+00      pargp                 1.0000000000E+00      0.0000000000E+00      1          
mk_rest_l2            log                   factor                1.0000000000E+00      1.1111111111E-01      2.2222222222E+00      pargp                 1.0000000000E+00      0.0000000000E+00      1          
mk_ring_l1            log                   factor                1.0000000000E+00      1.1111111111E-01      2.2222222222E+00      pargp                 1.0000000000E+00      0.0000000000E+00      1          
mk_ring_l2            log                   factor                1.0000000000E+00      1.1111111111E-01      1.1111111111E+00      pargp                 1.0000000000E+00      0.0000000000E+00      1          
mk_upland_l1          log                   factor                1.0000000000E+00      3.0000000000E-01      5.0000000000E+00      pargp                 1.0000000000E+00      0.0000000000E+00      1          
mk_upland_l2          log                   factor                1.0000000000E+00      3.0000000000E-01      5.0000000000E+00      pargp                 1.0000000000E+00      0.0000000000E+00      1          
mr_rest               log                   factor                1.0000000000E+00      2.0000000000E-01      1.8000000000E+00      pargp                 1.0000000000E+00      0.0000000000E+00      1          
mr_upland             log                   factor                1.0000000000E+00      2.0000000000E-01      1.8000000000E+00      pargp                 1.0000000000E+00      0.0000000000E+00      1          
* observation groups
head                 
* observation data
asm_01                1.3900000000E+00      2.0000000000E-01      head                 
asm_02                9.8000000000E-01      2.0000000000E-01      head                 
asm_03                1.0100000000E+00      2.0000000000E-01      head                 
asm_04                7.5000000000E-01      2.0000000000E-01      head                 
asm_05                5.3000000000E-01      2.0000000000E-01      head                 
asm_06                4.8000000000E-01      2.0000000000E-01      head                 
asm_07                4.7000000000E-01      2.0000000000E-01      head                 
asm_08                3.6000000000E-01      5.3333300000E-01      head                 
asm_09                3.1000000000E-01      2.0000000000E-01      head                 
asm_10                2.0000000000E-01      2.0000000000E-01      head                 
asm_11                2.8000000000E-01      2.0000000000E-01      head                 
asm_12                2.1000000000E-01      2.0000000000E-01      head                 
asm_13                6.1000000000E-01      2.0000000000E-01      head                 
asm_14                6.4000000000E-01      2.0000000000E-01      head                 
asm_15                6.8000000000E-01      2.0000000000E-01      head                 
asm_16                7.5000000000E-01      2.0000000000E-01      head                 
asm_17                3.3000000000E-01      2.0000000000E-01      head                 
asm_18                3.9000000000E-01      2.0000000000E-01      head                 
asm_19                3.4500000000E-01      5.3333300000E-01      head                 
asm_20                6.2000000000E-01      2.0000000000E-01      head                 
asm_22                1.6800000000E+00      2.0000000000E-01      head                 
asm_23                2.0200000000E+00      2.0000000000E-01      head                 
asm_24                1.8700000000E+00      2.0000000000E-01      head                 
asm_25                2.4600000000E+00      2.0000000000E-01      head                 
asm_27                2.5250000000E+00      5.3333300000E-01      head                 
asm_28                1.6900000000E+00      2.0000000000E-01      head                 
asm_30                2.3300000000E+00      5.3333300000E-01      head                 
asm_32                2.3600000000E+00      2.0000000000E-01      head                 
asm_33                2.2800000000E+00      2.0000000000E-01      head                 
asm_34                2.0700000000E+00      2.0000000000E-01      head                 
asm_35                2.0400000000E+00      2.0000000000E-01      head                 
asm_36                2.0200000000E+00      4.6666700000E-01      head                 
asm_37                2.0100000000E+00      4.6666700000E-01      head                 
asm_40                1.2200000000E+00      2.0000000000E-01      head                 
asm_41                1.2800000000E+00      2.0000000000E-01      head                 
asm_42                4.4000000000E-01      2.0000000000E-01      head                 
asm_43                2.7000000000E-01      2.0000000000E-01      head                 
asm_44                1.6300000000E+00      2.0000000000E-01      head                 
asm_45                1.7000000000E+00      2.0000000000E-01      head                 
asm_46                1.9200000000E+00      2.0000000000E-01      head                 
aso_1                 -5.7500000000E-01     5.3333300000E-01      head                 
aso_10                2.0900000000E+00      7.3333300000E-01      head                 
aso_12                2.2900000000E+00      5.3333300000E-01      head                 
aso_13                2.1000000000E+00      6.6666700000E-01      head                 
aso_14                1.7900000000E+00      7.3333300000E-01      head                 
aso_15                1.5800000000E+00      6.0000000000E-01      head                 
aso_16                1.4500000000E+00      6.0000000000E-01      head                 
aso_17                1.6550000000E+00      8.0000000000E-01      head                 
aso_18                1.9000000000E+00      6.6666700000E-01      head                 
aso_19                2.1600000000E+00      6.0000000000E-01      head                 
aso_2                 5.3000000000E-01      7.3333300000E-01      head                 
aso_21                1.9300000000E+00      7.3333300000E-01      head                 
aso_22                1.5000000000E-02      5.3333300000E-01      head                 
aso_23                9.1000000000E-01      6.6666700000E-01      head                 
aso_3                 -8.6000000000E-01     7.3333300000E-01      head                 
aso_37                -1.8500000000E-01     4.0000000000E-01      head                 
aso_38                3.0000000000E-01      5.3333300000E-01      head                 
aso_39                -1.3000000000E-01     4.0000000000E-01      head                 
aso_4                 1.2300000000E+00      7.3333300000E-01      head                 
aso_5                 1.6150000000E+00      6.6666700000E-01      head                 
aso_6                 8.3000000000E-01      7.3333300000E-01      head                 
aso_7                 3.2000000000E-01      7.3333300000E-01      head                 
aso_8                 8.2000000000E-01      4.6666700000E-01      head                 
aso_9                 1.2600000000E+00      6.6666700000E-01      head                 
b1_baca               3.8000000000E-01      6.6666700000E-01      head                 
b2_motul              5.9000000000E-01      7.3333300000E-01      head                 
b3_sacapuc            0.0000000000E+00      6.0000000000E-01      head                 
b4_timul              1.0000000000E-02      6.0000000000E-01      head                 
conagua               1.7800000000E+00      8.6666700000E-01      head                 
cu01                  1.1900000000E+00      3.3333300000E-01      head                 
cu02                  1.0400000000E+00      3.3333300000E-01      head                 
cu03                  1.1000000000E+00      3.3333300000E-01      head                 
cu04                  1.0500000000E+00      3.3333300000E-01      head                 
cu05                  1.0800000000E+00      3.3333300000E-01      head                 
cu06                  9.8000000000E-01      3.3333300000E-01      head                 
cu07                  1.1200000000E+00      3.3333300000E-01      head                 
cu08                  1.0400000000E+00      3.3333300000E-01      head                 
cu09                  1.0700000000E+00      3.3333300000E-01      head                 
cu10                  1.0300000000E+00      3.3333300000E-01      head                 
cu11                  9.0000000000E-01      3.3333300000E-01      head                 
cu12                  8.7000000000E-01      3.3333300000E-01      head                 
cu13                  1.1100000000E+00      3.3333300000E-01      head                 
cu14                  9.1000000000E-01      3.3333300000E-01      head                 
cu15                  5.2000000000E-01      3.3333300000E-01      head                 
cu16                  4.5000000000E-01      3.3333300000E-01      head                 
cu17                  3.3000000000E-01      3.3333300000E-01      head                 
cu18                  6.9000000000E-01      3.3333300000E-01      head                 
cu19                  6.2000000000E-01      3.3333300000E-01      head                 
cu20                  2.1000000000E-01      3.3333300000E-01      head                 
mi1_siglo_xx1         1.5600000000E+00      8.0000000000E-01      head                 
mi2_tho_o             1.1800000000E+00      8.0000000000E-01      head                 
mi3_hacienda_x_luch   7.4000000000E-01      7.3333300000E-01      head                 
mp1_fiuady            5.9500000000E-01      9.3333300000E-01      head                 
mp2_komchen           5.9000000000E-01      1.0000000000E+00      head                 
mp3_predeco           1.2000000000E-01      9.3333300000E-01      head                 
mp4_contenedores      5.5000000000E-02      9.3333300000E-01      head                 
observatorio          1.3250000000E+00      9.3333300000E-01      head                 
p1_celest_n           5.3000000000E-01      1.0000000000E+00      head                 
p2_chunchucmil        6.2000000000E-01      9.3333300000E-01      head                 
p3_amaris_ii          1.0200000000E+00      5.3333300000E-01      head                 
p4_nohuayun           5.9500000000E-01      8.0000000000E-01      head                 
p5_sisal              3.8000000000E-01      8.6666700000E-01      head                 
p6_tamchen            1.9500000000E+00      8.6666700000E-01      head                 
rm01_deportivo_sur    1.6450000000E+00      6.6666700000E-01      head                 
rm02_obervatorio      1.4000000000E+00      7.3333300000E-01      head                 
rm03_acuaparque       1.7000000000E+00      6.6666700000E-01      head                 
rm04_bomberos         1.3500000000E+00      6.6666700000E-01      head                 
rm05_portes_gil       1.2950000000E+00      5.3333300000E-01      head                 
rm06_chalmuch         1.1450000000E+00      5.3333300000E-01      head                 
rm07_anicabil         1.4300000000E+00      6.0000000000E-01      head                 
rm08_chenku           1.2750000000E+00      6.6666700000E-01      head                 
rm09_tecnologico      1.1000000000E+00      6.0000000000E-01      head                 
rm11ucu               1.1200000000E+00      6.0000000000E-01      head                 
rm12cheuman           1.3300000000E+00      7.3333300000E-01      head                 
rm13tixcuytun         1.4200000000E+00      6.0000000000E-01      head                 
rm14megalita          1.3200000000E+00      6.6666700000E-01      head                 
rm15sierra_papacal    6.7500000000E-01      6.6666700000E-01      head                 
rm18_sac_nicte        9.5000000000E-01      6.0000000000E-01      head                 
rm_10_sagarpa         1.0550000000E+00      5.3333300000E-01      head                 
rm_16_rancho          4.5500000000E-01      4.0000000000E-01      head                 
rm_17_dzidzilche      5.6000000000E-01      7.3333300000E-01      head                 
rm_19_crio            6.0000000000E-01      6.6666700000E-01      head                 
rm_20_baag            2.9500000000E-01      6.6666700000E-01      head                 
w_1a_plantel_sn_juan  2.5000000000E-01      8.6666700000E-01      head                 
w_1b_san_eduardo      5.1500000000E-01      9.3333300000E-01      head                 
w_1c_quinta_rosario   7.4000000000E-01      9.3333300000E-01      head                 
w_2a_dzilam_bravo     2.7000000000E-01      1.0000000000E+00      head                 
w_2b_dzilam_glez      9.9000000000E-01      1.0000000000E+00      head                 
w_2c_san_gregorio     1.6450000000E+00      9.3333300000E-01      head                 
w_3a_san_felipe       1.4000000000E+00      9.3333300000E-01      head                 
w_3b_santa_pilar      2.0550000000E+00      9.3333300000E-01      head                 
w_3c_san_isidro       2.2800000000E+00      9.3333300000E-01      head                 
w_4a_la_curva         1.8200000000E+00      9.3333300000E-01      head                 
w_4b_moctezuma        3.9800000000E+00      1.0000000000E+00      head                 
w_4c_vista_hermosa    5.2500000000E+00      8.6666700000E-01      head                 
* model command line
C:\Users\sebas\AppData\Local\Programs\Python\Python310\python.exe forward_run.py
* model input/output
params.csv.tpl params.csv
sim_heads.ins sim_heads.dat
