# File generated by Flopy version 3.9.1 on 04/13/2026 at 16:45:40.
BEGIN options
  FIXED_CELL
  PRINT_FLOWS
  SAVE_FLOWS
END options

BEGIN dimensions
  MAXBOUND  59723
END dimensions

BEGIN period  1
  1 5.70064575E-09
  2 5.67954947E-09
  3 1.06684470E-08
  4 1.14768086E-08
  5 1.22696520E-08
  6 1.29525273E-08
  7 1.34579090E-08
  8 1.14952168E-08
  9 1.06344533E-08
  10 1.01577263E-08
  11 9.98156353E-09
  12 1.01193015E-08
  13 9.96441046E-09
  14 9.90958597E-09
  15 9.96204823E-09
  16 9.90503932E-09
  17 9.95876746E-09
  18 1.00926108E-08
  19 9.89731474E-09
  20 9.92808189E-09
  21 9.89227568E-09
  22 9.92428515E-09
  23 1.00484412E-08
  24 1.03604082E-08
  25 1.07223135E-08
  26 1.03396297E-08
  27 1.07755896E-08
  28 1.12075887E-08
  29 1.16575328E-08
  30 1.12381131E-08
  31 1.17081368E-08
  32 1.23257587E-08
  33 1.30469501E-08
  34 1.35610204E-08
  35 1.39331727E-08
  36 1.41660770E-08
  37 1.40183043E-08
  38 1.39197374E-08
  39 1.37772327E-08
  40 1.25275853E-08
  41 1.17166586E-08
  42 1.09513242E-08
  43 1.05229281E-08
  44 1.11345897E-08
  45 1.07043512E-08
  46 1.01787974E-08
  47 9.98661110E-09
  48 9.92980656E-09
  49 9.91179479E-09
  50 9.94863701E-09
  51 9.93037088E-09
  52 1.00407824E-08
  53 9.97512948E-09
  54 9.95664505E-09
  55 1.00095787E-08
  56 9.99091566E-09
  57 1.03550940E-08
  58 1.01268252E-08
  59 1.00658246E-08
  60 1.02464243E-08
  61 1.01852617E-08
  62 9.90523993E-09
  63 9.91021266E-09
  64 9.92371826E-09
  65 9.92875241E-09
  66 9.94760492E-09
  67 9.94990574E-09
  68 9.95498743E-09
  69 9.98410208E-09
  70 9.98921626E-09
  71 9.97180834E-09
  72 1.00001321E-08
  73 1.00061745E-08
  74 1.00347345E-08
  75 1.00250441E-08
  76 1.01429935E-08
  77 1.00798880E-08
  78 1.02002307E-08
  79 1.00265729E-08
  80 1.00317035E-08
  81 1.00775446E-08
  82 1.00826745E-08
  83 1.00487535E-08
  84 1.00774751E-08
  85 1.00997675E-08
  86 1.01285711E-08
  87 1.01713694E-08
  88 1.02054246E-08
  89 1.01661283E-08
  90 1.02876893E-08
  91 1.02853956E-08
  92 1.04068336E-08
  93 1.04107635E-08
  94 1.07218843E-08
  95 1.09508589E-08
  96 1.07898619E-08
  97 1.10209583E-08
  98 1.06243032E-08
  99 1.08839110E-08
  100 1.10304105E-08
  101 1.11484680E-08
  102 1.10836990E-08
  103 1.12013850E-08
  104 1.10047758E-08
  105 1.11432788E-08
  106 1.12602933E-08
  107 1.12091586E-08
  108 1.13251934E-08
  109 1.11885961E-08
  110 1.14293483E-08
  111 1.12601860E-08
  112 1.15017205E-08
  113 1.18200754E-08
  114 1.12680282E-08
  115 1.13883598E-08
  116 1.13204901E-08
  117 1.14402846E-08
  118 1.15088014E-08
  119 1.16287629E-08
  120 1.15601099E-08
  121 1.16793804E-08
  122 1.13786451E-08
  123 1.14976076E-08
  124 1.14424858E-08
  125 1.15603148E-08
  126 1.16165274E-08
  127 1.17348245E-08
  128 1.16780336E-08
  129 1.17950697E-08
  130 1.18308590E-08
  131 1.20612990E-08
  132 1.19385940E-08
  133 1.21644955E-08
  134 1.22694768E-08
  135 1.26747953E-08
  136 1.24353089E-08
  137 1.28264367E-08
  138 1.32289694E-08
  139 1.37311887E-08
  140 1.40681839E-08
  141 1.42670958E-08
  142 1.43463233E-08
  143 1.43188639E-08
  144 1.39435079E-08
  145 1.39656959E-08
  146 1.39929251E-08
  147 1.40269075E-08
  148 1.40516173E-08
  149 1.40040281E-08
  150 1.39174116E-08
  151 1.37234611E-08
  152 1.33868634E-08
  153 1.29089112E-08
  154 1.22018836E-08
  155 1.14118973E-08
  156 1.10142669E-08
  157 1.08188029E-08
  158 1.11864266E-08
  159 1.09967140E-08
  160 1.17798680E-08
  161 1.13846066E-08
  162 1.11931629E-08
  163 1.11059211E-08
  164 1.13020762E-08
  165 1.12170190E-08
  166 1.16072190E-08
  167 1.14174250E-08
  168 1.13348347E-08
  169 1.15389212E-08
  170 1.14590722E-08
  171 1.06462993E-08
  172 1.05045214E-08
  173 1.08289434E-08
  174 1.06907964E-08
  175 1.04549736E-08
  176 1.10244131E-08
  177 1.09495891E-08
  178 1.11375187E-08
  179 1.10645079E-08
  180 1.09095523E-08
  181 1.12576103E-08
  182 1.11866626E-08
  183 1.13843846E-08
  184 1.13157433E-08
  185 1.11590849E-08
  186 1.08119252E-08
  187 1.07547952E-08
  188 1.10666902E-08
  189 1.09550073E-08
  190 1.09378682E-08
  191 1.10913880E-08
  192 1.10747474E-08
  193 1.04275741E-08
  194 1.05825686E-08
  195 1.07414834E-08
  196 1.07727025E-08
  197 1.09313944E-08
  198 1.09356751E-08
  199 1.10684300E-08
  200 1.10725238E-08
  201 1.10290673E-08
  202 1.08464617E-08
  203 1.10044590E-08
  204 1.11483399E-08
  205 1.12586160E-08
  206 1.07513061E-08
  207 1.09416884E-08
  208 1.09379936E-08
  209 1.11227074E-08
  210 1.11526337E-08
  211 1.13765205E-08
  212 1.13270389E-08
  213 1.15435266E-08
  214 1.10571101E-08
  215 1.11405442E-08
  216 1.11739431E-08
  217 1.12552536E-08
  218 1.12301218E-08
  219 1.13248730E-08
  220 1.13425309E-08
  221 1.14348252E-08
  222 1.12978839E-08
  223 1.13768009E-08
  224 1.14285971E-08
  225 1.15048593E-08
  226 1.14614937E-08
  227 1.15510369E-08
  228 1.15866928E-08
  229 1.16732006E-08
  230 1.15268975E-08
  231 1.17334389E-08
  232 1.16445256E-08
  233 1.17410921E-08
  234 1.17635064E-08
  235 1.18567707E-08
  236 1.18399196E-08
  237 1.19402511E-08
  238 1.19522037E-08
  239 1.20490747E-08
  240 1.16065791E-08
  241 1.18371500E-08
  242 1.17655863E-08
  243 1.19877541E-08
  244 1.20637586E-08
  245 1.22830581E-08
  246 1.22057455E-08
  247 1.24163863E-08
  248 1.19450110E-08
  249 1.21564141E-08
  250 1.21433285E-08
  251 1.23417225E-08
  252 1.22707704E-08
  253 1.23741976E-08
  254 1.23549296E-08
  255 1.24554152E-08
  256 1.24756466E-08
  257 1.25748582E-08
  258 1.25539603E-08
  259 1.26503155E-08
  260 1.24427683E-08
  261 1.25400702E-08
  262 1.25340824E-08
  263 1.26279697E-08
  264 1.26354818E-08
  265 1.27287636E-08
  266 1.27200289E-08
  267 1.28100308E-08
  268 1.24926940E-08
  269 1.26911340E-08
  270 1.25352494E-08
  271 1.26342696E-08
  272 1.26019014E-08
  273 1.26985931E-08
  274 1.28075809E-08
  275 1.30171840E-08
  276 1.26716235E-08
  277 1.27657788E-08
  278 1.27442806E-08
  279 1.28356988E-08
  280 1.28571998E-08
  281 1.29457965E-08
  282 1.29244515E-08
  283 1.30104532E-08
  284 1.28197239E-08
  285 1.29082126E-08
  286 1.28977917E-08
  287 1.29831685E-08
  288 1.30710396E-08
  289 1.31034664E-08
  290 1.32416784E-08
  291 1.32105901E-08
  292 1.33575952E-08
  293 1.33130622E-08
  294 1.35805290E-08
  295 1.35061256E-08
  296 1.37451035E-08
  297 1.39635732E-08
  298 1.42406496E-08
  299 1.43922504E-08
  300 1.44306284E-08
  301 1.43625976E-08
  302 1.41992706E-08
  303 1.39700806E-08
  304 1.34247117E-08
  305 1.38876096E-08
  306 1.38994354E-08
  307 1.39076672E-08
  308 1.39384276E-08
  309 1.39981369E-08
  310 1.40683112E-08
  311 1.40835196E-08
  312 1.40678291E-08
  313 1.39612341E-08
  314 1.37228422E-08
  315 1.35964266E-08
  316 1.38923400E-08
  317 1.38037115E-08
  318 1.33970087E-08
  319 1.31564248E-08
  320 1.36294966E-08
  321 1.35375463E-08
  322 1.37525195E-08
  323 1.36732799E-08
  324 1.34367519E-08
  325 1.33272151E-08
  326 1.35863270E-08
  327 1.34918033E-08
  328 1.28754364E-08
  329 1.25602867E-08
  330 1.32413014E-08
  331 1.29948801E-08
  332 1.22268486E-08
  333 1.18520759E-08
  334 1.16662391E-08
  335 1.15893950E-08
  336 1.17990182E-08
  337 1.17254296E-08
  338 1.21164691E-08
  339 1.19729322E-08
  340 1.26732210E-08
  341 1.25331655E-08
  342 1.29283374E-08
  343 1.28079024E-08
  344 1.23601771E-08
  345 1.22918290E-08
  346 1.25018476E-08
  347 1.24379823E-08
  348 1.22260780E-08
  349 1.21636000E-08
  350 1.23765404E-08
  351 1.23181519E-08
  352 1.26464687E-08
  353 1.25872517E-08
  354 1.27936049E-08
  355 1.27391787E-08
  356 1.25302821E-08
  357 1.24761419E-08
  358 1.26868222E-08
  359 1.26370673E-08
  360 1.15174952E-08
  361 1.14513946E-08
  362 1.16565566E-08
  363 1.15932200E-08
  364 1.14368567E-08
  365 1.18452903E-08
  366 1.17395929E-08
  367 1.13509986E-08
  368 1.12351276E-08
  369 1.12190445E-08
  370 1.13857940E-08
  371 1.13703248E-08
  372 1.16614616E-08
  373 1.16154090E-08
  374 1.21571359E-08
  375 1.20634225E-08
  376 1.24846711E-08
  377 1.24040495E-08
  378 1.21446188E-08
  379 1.12129048E-08
  380 1.12167951E-08
  381 1.13643836E-08
  382 1.13680549E-08
  383 1.13154802E-08
  384 1.16042155E-08
  385 1.16285174E-08
  386 1.14384600E-08
  387 1.15404786E-08
  388 1.17541596E-08
  389 1.17414657E-08
  390 1.17961905E-08
  391 1.19012925E-08
  392 1.19530760E-08
  393 1.22026481E-08
  394 1.20911480E-08
  395 1.20659572E-08
  396 1.21146411E-08
  397 1.22348873E-08
  398 1.22803299E-08
  399 1.24446908E-08
  400 1.25145242E-08
  401 1.16717206E-08
  402 1.18256208E-08
  403 1.18573658E-08
  404 1.19242180E-08
  405 1.20109762E-08
  406 1.20742612E-08
  407 1.21049957E-08
  408 1.18878179E-08
  409 1.19775015E-08
  410 1.20170969E-08
  411 1.21029373E-08
  412 1.20692629E-08
  413 1.21623999E-08
  414 1.21907660E-08
  415 1.22799117E-08
  416 1.22590048E-08
  417 1.24218103E-08
  418 1.21690928E-08
  419 1.22286253E-08
  420 1.23311783E-08
  421 1.23867930E-08
  422 1.24014054E-08
  423 1.26047751E-08
  424 1.27109834E-08
  425 1.27486741E-08
  426 1.23585852E-08
  427 1.25419128E-08
  428 1.25884615E-08
  429 1.27549143E-08
  430 1.27214600E-08
  431 1.28947022E-08
  432 1.29180477E-08
  433 1.30755851E-08
  434 1.30242928E-08
  435 1.32958842E-08
  436 1.30599138E-08
  437 1.32160107E-08
  438 1.32259660E-08
  439 1.33682021E-08
  440 1.32735229E-08
  441 1.33455077E-08
  442 1.33432450E-08
  443 1.34122608E-08
  444 1.34149465E-08
  445 1.34818421E-08
  446 1.34788479E-08
  447 1.35430082E-08
  448 1.34145092E-08
  449 1.34804445E-08
  450 1.34871645E-08
  451 1.35499184E-08
  452 1.35440767E-08
  453 1.36054057E-08
  454 1.36105019E-08
  455 1.36689132E-08
  456 1.35480363E-08
  457 1.36275673E-08
  458 1.37392809E-08
  459 1.37758405E-08
  460 1.38744891E-08
  461 1.36059457E-08
  462 1.37223527E-08
  463 1.37226740E-08
  464 1.38291808E-08
  465 1.39257726E-08
  466 1.39507659E-08
  467 1.41180220E-08
  468 1.42430810E-08
  469 1.44417898E-08
  470 1.45375481E-08
  471 1.45330587E-08
  472 1.44271748E-08
  473 1.42245914E-08
  474 1.39543631E-08
  475 1.36749158E-08
  476 1.34732033E-08
  477 1.34141952E-08
  478 1.33023233E-08
  479 1.34191447E-08
  480 1.38479819E-08
  481 1.34396752E-08
  482 1.38453602E-08
  483 1.38640304E-08
  484 1.38656417E-08
  485 1.38529677E-08
  486 1.38445816E-08
  487 1.38585695E-08
  488 1.38493570E-08
  489 1.38269219E-08
  490 1.38073137E-08
  491 1.38439062E-08
  492 1.38469074E-08
  493 1.37940822E-08
  494 1.37920555E-08
  495 1.38618924E-08
  496 1.38902985E-08
  497 1.38157700E-08
  498 1.38270596E-08
  499 1.37854313E-08
  500 1.37969815E-08
  501 1.38425763E-08
  502 1.38622037E-08
  503 1.38133670E-08
  504 1.38344635E-08
  505 1.39312705E-08
  506 1.39818619E-08
  507 1.38867368E-08
  508 1.39490686E-08
  509 1.40375692E-08
  510 1.40930433E-08
  511 1.40076789E-08
  512 1.40418993E-08
  513 1.39949980E-08
  514 1.40334047E-08
  515 1.40761179E-08
  516 1.41095865E-08
  517 1.40720760E-08
  518 1.41102219E-08
  519 1.41427934E-08
  520 1.41525239E-08
  521 1.41609668E-08
  522 1.41923718E-08
  523 1.42171848E-08
  524 1.42118478E-08
  525 1.40582489E-08
  526 1.40184323E-08
  527 1.42337720E-08
  528 1.42352223E-08
  529 1.38775737E-08
  530 1.37947382E-08
  531 1.37583078E-08
  532 1.38625444E-08
  533 1.38295803E-08
  534 1.40037946E-08
  535 1.39306285E-08
  536 1.39011600E-08
  537 1.39988716E-08
  538 1.39729174E-08
  539 1.37201776E-08
  540 1.36803696E-08
  541 1.37950706E-08
  542 1.37590402E-08
  543 1.36598361E-08
  544 1.38703016E-08
  545 1.38380822E-08
  546 1.39457307E-08
  547 1.39173439E-08
  548 1.38299188E-08
  549 1.41303408E-08
  550 1.40910716E-08
  551 1.42564075E-08
  552 1.42305779E-08
  553 1.40477521E-08
  554 1.40006888E-08
  555 1.42019333E-08
  556 1.41708404E-08
  557 1.36282583E-08
  558 1.33894588E-08
  559 1.32910312E-08
  560 1.36147881E-08
  561 1.35369059E-08
  562 1.40224044E-08
  563 1.38413557E-08
  564 1.37380964E-08
  565 1.37066814E-08
  566 1.38590969E-08
  567 1.38329772E-08
  568 1.40671240E-08
  569 1.39797479E-08
  570 1.39589068E-08
  571 1.40997847E-08
  572 1.40841876E-08
  573 1.31908348E-08
  574 1.30910365E-08
  575 1.34578617E-08
  576 1.33793485E-08
  577 1.29428170E-08
  578 1.28933009E-08
  579 1.30936662E-08
  580 1.30491559E-08
  581 1.28456753E-08
  582 1.28004201E-08
  583 1.30063557E-08
  584 1.29656925E-08
  585 1.33034635E-08
  586 1.32326798E-08
  587 1.36751667E-08
  588 1.36437191E-08
  589 1.38068258E-08
  590 1.37807796E-08
  591 1.36125233E-08
  592 1.35817826E-08
  593 1.37549887E-08
  594 1.37296169E-08
  595 1.39381019E-08
  596 1.39174404E-08
  597 1.40686940E-08
  598 1.40533814E-08
  599 1.38970379E-08
  600 1.38770187E-08
  601 1.40383314E-08
  602 1.40236289E-08
  603 1.35517182E-08
  604 1.35225677E-08
  605 1.37048411E-08
  606 1.36808502E-08
  607 1.34945829E-08
  608 1.34680268E-08
  609 1.36578438E-08
  610 1.36360293E-08
  611 1.38575156E-08
  612 1.38386691E-08
  613 1.40093631E-08
  614 1.39956261E-08
  615 1.38206264E-08
  616 1.38035395E-08
  617 1.39825130E-08
  618 1.39701212E-08
  619 1.28236420E-08
  620 1.27569373E-08
  621 1.31697442E-08
  622 1.31174883E-08
  623 1.27073847E-08
  624 1.26777998E-08
  625 1.30785597E-08
  626 1.30551113E-08
  627 1.35187687E-08
  628 1.34812059E-08
  629 1.38667205E-08
  630 1.38438251E-08
  631 1.33660208E-08
  632 1.33535114E-08
  633 1.35521889E-08
  634 1.35418348E-08
  635 1.33441079E-08
  636 1.34351814E-08
  637 1.36335723E-08
  638 1.36276903E-08
  639 1.37378079E-08
  640 1.37296009E-08
  641 1.39223669E-08
  642 1.39162890E-08
  643 1.38241562E-08
  644 1.38192026E-08
  645 1.40132139E-08
  646 1.40091760E-08
  647 1.29532149E-08
  648 1.28098178E-08
  649 1.28672232E-08
  650 1.31815260E-08
  651 1.31226259E-08
  652 1.31503729E-08
  653 1.33045942E-08
  654 1.33286329E-08
  655 1.35281411E-08
  656 1.35351657E-08
  657 1.39114218E-08
  658 1.39145160E-08
  659 1.35549621E-08
  660 1.34866761E-08
  661 1.35069915E-08
  662 1.36683217E-08
  663 1.36849155E-08
  664 1.39255710E-08
  665 1.38490045E-08
  666 1.38618940E-08
  667 1.40282238E-08
  668 1.40374408E-08
  669 1.29417170E-08
  670 1.30296949E-08
  671 1.31815801E-08
  672 1.32158769E-08
  673 1.33557285E-08
  674 1.33855676E-08
  675 1.33534877E-08
  676 1.33250066E-08
  677 1.35299600E-08
  678 1.35553259E-08
  679 1.37037596E-08
  680 1.37246561E-08
  681 1.36784262E-08
  682 1.38766336E-08
  683 1.38930831E-08
  684 1.40481119E-08
  685 1.40601541E-08
  686 1.40008030E-08
  687 1.39115361E-08
  688 1.35179087E-08
  689 1.37113811E-08
  690 1.40189410E-08
  691 1.39940820E-08
  692 1.40603440E-08
  693 1.42126164E-08
  694 1.41973368E-08
  695 1.42060679E-08
  696 1.42817302E-08
  697 1.43030681E-08
  698 1.38764591E-08
  699 1.40425062E-08
  700 1.41077260E-08
  701 1.41705941E-08
  702 1.42318204E-08
  703 1.42574024E-08
  704 1.43244662E-08
  705 1.43458612E-08
  706 1.43366476E-08
  707 1.43328219E-08
  708 1.43656650E-08
  709 1.45468583E-08
  710 1.46591994E-08
  711 1.46972590E-08
  712 1.46530207E-08
  713 1.45172357E-08
  714 1.42897081E-08
  715 1.39913657E-08
  716 1.36848167E-08
  717 1.34638640E-08
  718 1.33999160E-08
  719 1.34969032E-08
  720 1.37042752E-08
  721 1.39612691E-08
  722 1.30836269E-08
  723 1.32836649E-08
  724 1.33869373E-08
  725 1.33134798E-08
  726 1.34156278E-08
  727 1.34622888E-08
  728 1.38409107E-08
  729 1.38464796E-08
  730 1.38421079E-08
  731 1.38452786E-08
  732 1.34652542E-08
  733 1.38364870E-08
  734 1.34790717E-08
  735 1.38416435E-08
  736 1.38421223E-08
  737 1.38444122E-08
  738 1.38435971E-08
  739 1.38452689E-08
  740 1.38450309E-08
  741 1.38440736E-08
  742 1.38452259E-08
  743 1.38435654E-08
  744 1.38453050E-08
  745 1.38463406E-08
  746 1.38472641E-08
  747 1.38476461E-08
  748 1.38456172E-08
  749 1.38432341E-08
  750 1.38462247E-08
  751 1.38431013E-08
  752 1.38464958E-08
  753 1.38417445E-08
  754 1.38425896E-08
  755 1.38348708E-08
  756 1.38330924E-08
  757 1.38214813E-08
  758 1.38230448E-08
  759 1.38081204E-08
  760 1.38416420E-08
  761 1.38378438E-08
  762 1.38403912E-08
  763 1.38358140E-08
  764 1.38281945E-08
  765 1.38392977E-08
  766 1.38339211E-08
  767 1.38383843E-08
  768 1.38321894E-08
  769 1.38218917E-08
  770 1.38194246E-08
  771 1.38113656E-08
  772 1.38148714E-08
  773 1.38059224E-08
  774 1.38025729E-08
  775 1.37931897E-08
  776 1.37962226E-08
  777 1.37859207E-08
  778 1.38103905E-08
  779 1.38005286E-08
  780 1.38060109E-08
  781 1.37952150E-08
  782 1.37898985E-08
  783 1.37786543E-08
  784 1.37836332E-08
  785 1.37714246E-08
  786 1.38079154E-08
  787 1.37934439E-08
  788 1.37911812E-08
  789 1.37733657E-08
  790 1.37791356E-08
  791 1.37660491E-08
  792 1.37658441E-08
  793 1.37577549E-08
  794 1.37543656E-08
  795 1.37454694E-08
  796 1.37500844E-08
  797 1.37429693E-08
  798 1.37370247E-08
  799 1.37291749E-08
  800 1.37833637E-08
  801 1.37732464E-08
  802 1.37751701E-08
  803 1.37641281E-08
  804 1.37629919E-08
  805 1.37527562E-08
  806 1.37529554E-08
  807 1.37418144E-08
  808 1.37669548E-08
  809 1.37549639E-08
  810 1.37587541E-08
  811 1.37457917E-08
  812 1.37428485E-08
  813 1.37307780E-08
  814 1.37327111E-08
  815 1.37196885E-08
  816 1.37426957E-08
  817 1.37329664E-08
  818 1.37308686E-08
  819 1.37202810E-08
  820 1.37237219E-08
  821 1.37151128E-08
  822 1.37102125E-08
  823 1.37008207E-08
  824 1.37189229E-08
  825 1.37074535E-08
  826 1.37069020E-08
  827 1.36945291E-08
  828 1.36965382E-08
  829 1.36863418E-08
  830 1.36827458E-08
  831 1.36717247E-08
  832 1.37560172E-08
  833 1.37486608E-08
  834 1.37270235E-08
  835 1.37174253E-08
  836 1.37452704E-08
  837 1.37465147E-08
  838 1.37123110E-08
  839 1.37124241E-08
  840 1.37079224E-08
  841 1.37011666E-08
  842 1.36922582E-08
  843 1.36854253E-08
  844 1.36847407E-08
  845 1.36770243E-08
  846 1.36694553E-08
  847 1.36616330E-08
  848 1.36533086E-08
  849 1.36509416E-08
  850 1.36583003E-08
  851 1.37591139E-08
  852 1.37636501E-08
  853 1.37423409E-08
  854 1.37468467E-08
  855 1.37695105E-08
  856 1.37767041E-08
  857 1.37527599E-08
  858 1.37600904E-08
  859 1.37250789E-08
  860 1.37295484E-08
  861 1.37073620E-08
  862 1.37117899E-08
  863 1.37355113E-08
  864 1.37429780E-08
  865 1.37177997E-08
  866 1.37254025E-08
  867 1.37852270E-08
  868 1.37950627E-08
  869 1.37688340E-08
  870 1.37789734E-08
  871 1.38045325E-08
  872 1.37519442E-08
  873 1.37623917E-08
  874 1.37345936E-08
  875 1.37453539E-08
  876 1.37726157E-08
  877 1.36819881E-08
  878 1.36941439E-08
  879 1.36442971E-08
  880 1.36566225E-08
  881 1.37132061E-08
  882 1.37390073E-08
  883 1.36766210E-08
  884 1.37041024E-08
  885 1.38337302E-08
  886 1.39088091E-08
  887 1.37711379E-08
  888 1.38089778E-08
  889 1.37386098E-08
  890 1.37794560E-08
  891 1.38517372E-08
  892 1.38985041E-08
  893 1.38205298E-08
  894 1.38444065E-08
  895 1.38068999E-08
  896 1.38317395E-08
  897 1.38693085E-08
  898 1.38951039E-08
  899 1.38576593E-08
  900 1.38845219E-08
  901 1.39807296E-08
  902 1.40155922E-08
  903 1.40365950E-08
  904 1.40097308E-08
  905 1.40318688E-08
  906 1.39650718E-08
  907 1.40035612E-08
  908 1.40268507E-08
  909 1.39971157E-08
  910 1.40215718E-08
  911 1.40576602E-08
  912 1.40786844E-08
  913 1.40540996E-08
  914 1.40763169E-08
  915 1.41096909E-08
  916 1.40502628E-08
  917 1.40736880E-08
  918 1.40461796E-08
  919 1.40708263E-08
  920 1.40970206E-08
  921 1.41201594E-08
  922 1.40954035E-08
  923 1.41198074E-08
  924 1.39482936E-08
  925 1.39904308E-08
  926 1.40160675E-08
  927 1.39835477E-08
  928 1.40103775E-08
  929 1.39307403E-08
  930 1.39872335E-08
  931 1.40418841E-08
  932 1.40677645E-08
  933 1.40374145E-08
  934 1.40645392E-08
  935 1.40935974E-08
  936 1.41192763E-08
  937 1.40916370E-08
  938 1.41185994E-08
  939 1.40328130E-08
  940 1.40611906E-08
  941 1.40281261E-08
  942 1.40577633E-08
  943 1.41029625E-08
  944 1.41515554E-08
  945 1.41916225E-08
  946 1.41551076E-08
  947 1.42004076E-08
  948 1.42288798E-08
  949 1.41579428E-08
  950 1.42085337E-08
  951 1.41603028E-08
  952 1.42162116E-08
  953 1.42811386E-08
  954 1.43276178E-08
  955 1.42777900E-08
  956 1.43038485E-08
  957 1.42835278E-08
  958 1.43109599E-08
  959 1.43291781E-08
  960 1.43537298E-08
  961 1.43376719E-08
  962 1.43636161E-08
  963 1.42956418E-08
  964 1.43478934E-08
  965 1.43182540E-08
  966 1.43567374E-08
  967 1.43429325E-08
  968 1.43870922E-08
  969 1.44276670E-08
  970 1.43847636E-08
  971 1.43967004E-08
  972 1.44791548E-08
  973 1.44879225E-08
  974 1.45077643E-08
  975 1.45502938E-08
  976 1.45776053E-08
  977 1.44068820E-08
  978 1.44491180E-08
  979 1.45252979E-08
  980 1.45409619E-08
  981 1.45781196E-08
  982 1.45895181E-08
  983 1.46155818E-08
  984 1.46290218E-08
  985 1.46006020E-08
  986 1.46114407E-08
  987 1.46422261E-08
  988 1.46552695E-08
  989 1.45552452E-08
  990 1.46115802E-08
  991 1.46511339E-08
  992 1.47176602E-08
  993 1.44400989E-08
  994 1.44260933E-08
  995 1.46928029E-08
  996 1.47333242E-08
  997 1.44106901E-08
  998 1.42901819E-08
  999 1.42741956E-08
  1000 1.45087673E-08
  1001 1.45125874E-08
  1002 1.47817169E-08
  1003 1.48404871E-08
  1004 1.41983131E-08
  1005 1.41882959E-08
  1006 1.43266835E-08
  1007 1.43218910E-08
  1008 1.42446920E-08
  1009 1.45177302E-08
  1010 1.45240115E-08
  1011 1.42316635E-08
  1012 1.42200252E-08
  1013 1.45310494E-08
  1014 1.45382761E-08
  1015 1.49084596E-08
  1016 1.49789343E-08
  1017 1.42099055E-08
  1018 1.42014088E-08
  1019 1.45449837E-08
  1020 1.45504063E-08
  1021 1.41053797E-08
  1022 1.42044076E-08
  1023 1.42863864E-08
  1024 1.43874451E-08
  1025 1.42002377E-08
  1026 1.41970990E-08
  1027 1.43847517E-08
  1028 1.43824921E-08
  1029 1.46565209E-08
  1030 1.46554186E-08
  1031 1.50393392E-08
  1032 1.51714059E-08
  1033 1.41950169E-08
  1034 1.41940122E-08
  1035 1.43806767E-08
  1036 1.43793223E-08
  1037 1.41941008E-08
  1038 1.41952931E-08
  1039 1.43784514E-08
  1040 1.43780916E-08
  1041 1.45633491E-08
  1042 1.45616470E-08
  1043 1.47426193E-08
  1044 1.47405723E-08
  1045 1.45598312E-08
  1046 1.45579465E-08
  1047 1.47378291E-08
  1048 1.47344512E-08
  1049 1.42892041E-08
  1050 1.42950720E-08
  1051 1.46421861E-08
  1052 1.46357942E-08
  1053 1.50032373E-08
  1054 1.49950666E-08
  1055 1.53367719E-08
  1056 1.53251681E-08
  1057 1.51337141E-08
  1058 1.43044090E-08
  1059 1.43172225E-08
  1060 1.46296625E-08
  1061 1.46246542E-08
  1062 1.44829665E-08
  1063 1.50784647E-08
  1064 1.50183246E-08
  1065 1.45073999E-08
  1066 1.44274859E-08
  1067 1.43823123E-08
  1068 1.43991875E-08
  1069 1.44817583E-08
  1070 1.44942384E-08
  1071 1.46205650E-08
  1072 1.46313247E-08
  1073 1.48623990E-08
  1074 1.48489981E-08
  1075 1.50911103E-08
  1076 1.50600586E-08
  1077 1.48232983E-08
  1078 1.48170051E-08
  1079 1.49752795E-08
  1080 1.49649051E-08
  1081 1.50722113E-08
  1082 1.50578220E-08
  1083 1.49556715E-08
  1084 1.49475689E-08
  1085 1.50446898E-08
  1086 1.50328126E-08
  1087 1.44162840E-08
  1088 1.44335423E-08
  1089 1.45070979E-08
  1090 1.45202812E-08
  1091 1.45001885E-08
  1092 1.46446108E-08
  1093 1.46600269E-08
  1094 1.46170023E-08
  1095 1.48143783E-08
  1096 1.48150834E-08
  1097 1.49405726E-08
  1098 1.49346457E-08
  1099 1.50221712E-08
  1100 1.50127325E-08
  1101 1.49297411E-08
  1102 1.49258036E-08
  1103 1.50044512E-08
  1104 1.49972727E-08
  1105 1.48186772E-08
  1106 1.48246520E-08
  1107 1.49551857E-08
  1108 1.49494552E-08
  1109 1.46664975E-08
  1110 1.47140039E-08
  1111 1.48919912E-08
  1112 1.49027965E-08
  1113 1.48489470E-08
  1114 1.48784338E-08
  1115 1.48638903E-08
  1116 1.47878316E-08
  1117 1.46343146E-08
  1118 1.43990326E-08
  1119 1.40952734E-08
  1120 1.37836893E-08
  1121 1.35571638E-08
  1122 1.34880827E-08
  1123 1.35810815E-08
  1124 1.37852367E-08
  1125 1.40391346E-08
  1126 1.42988353E-08
  1127 1.27305424E-08
  1128 1.31512069E-08
  1129 1.33487697E-08
  1130 1.34484458E-08
  1131 1.33903052E-08
  1132 1.34860717E-08
  1133 1.34937129E-08
  1134 1.38479416E-08
  1135 1.35092627E-08
  1136 1.38555313E-08
  1137 1.38506419E-08
  1138 1.38470706E-08
  1139 1.38431903E-08
  1140 1.38481781E-08
  1141 1.38435262E-08
  1142 1.38548469E-08
  1143 1.38531783E-08
  1144 1.38580164E-08
  1145 1.38556394E-08
  1146 1.38476935E-08
  1147 1.38580357E-08
  1148 1.38645818E-08
  1149 1.38711253E-08
  1150 1.38721598E-08
  1151 1.38721330E-08
  1152 1.38782748E-08
  1153 1.38776000E-08
  1154 1.38615469E-08
  1155 1.38584519E-08
  1156 1.38654645E-08
  1157 1.38616441E-08
  1158 1.38533313E-08
  1159 1.38462943E-08
  1160 1.38557544E-08
  1161 1.38479063E-08
  1162 1.38697968E-08
  1163 1.38652455E-08
  1164 1.38745724E-08
  1165 1.38692870E-08
  1166 1.38585821E-08
  1167 1.38499188E-08
  1168 1.38618477E-08
  1169 1.38523677E-08
  1170 1.38376758E-08
  1171 1.38306455E-08
  1172 1.38371991E-08
  1173 1.38293180E-08
  1174 1.38161760E-08
  1175 1.38325852E-08
  1176 1.38113012E-08
  1177 1.37936981E-08
  1178 1.37774625E-08
  1179 1.37642697E-08
  1180 1.37714259E-08
  1181 1.37572311E-08
  1182 1.37849853E-08
  1183 1.37549269E-08
  1184 1.38325211E-08
  1185 1.38075621E-08
  1186 1.38339622E-08
  1187 1.38052945E-08
  1188 1.37868535E-08
  1189 1.37711494E-08
  1190 1.37838553E-08
  1191 1.37671408E-08
  1192 1.37545648E-08
  1193 1.37372862E-08
  1194 1.37495264E-08
  1195 1.37312043E-08
  1196 1.37812434E-08
  1197 1.37635165E-08
  1198 1.37790701E-08
  1199 1.37603324E-08
  1200 1.37448705E-08
  1201 1.37255029E-08
  1202 1.37406565E-08
  1203 1.37202456E-08
  1204 1.37393656E-08
  1205 1.37102801E-08
  1206 1.37225508E-08
  1207 1.36893937E-08
  1208 1.36818857E-08
  1209 1.36688878E-08
  1210 1.36570236E-08
  1211 1.36550222E-08
  1212 1.36422990E-08
  1213 1.36570667E-08
  1214 1.36272056E-08
  1215 1.37066231E-08
  1216 1.36693085E-08
  1217 1.36920767E-08
  1218 1.36505763E-08
  1219 1.36329653E-08
  1220 1.35993598E-08
  1221 1.36101905E-08
  1222 1.35728186E-08
  1223 1.36461406E-08
  1224 1.36364067E-08
  1225 1.36306096E-08
  1226 1.36201296E-08
  1227 1.36164628E-08
  1228 1.36014087E-08
  1229 1.35947342E-08
  1230 1.35866437E-08
  1231 1.35772184E-08
  1232 1.35691049E-08
  1233 1.36054229E-08
  1234 1.36016004E-08
  1235 1.35803020E-08
  1236 1.35758433E-08
  1237 1.35622180E-08
  1238 1.35573035E-08
  1239 1.35733848E-08
  1240 1.35730241E-08
  1241 1.35544834E-08
  1242 1.35538597E-08
  1243 1.35845048E-08
  1244 1.35717274E-08
  1245 1.35695715E-08
  1246 1.35560180E-08
  1247 1.35605349E-08
  1248 1.35517368E-08
  1249 1.35441209E-08
  1250 1.35346367E-08
  1251 1.35550076E-08
  1252 1.35406781E-08
  1253 1.35409131E-08
  1254 1.35258115E-08
  1255 1.35280771E-08
  1256 1.35173949E-08
  1257 1.35125105E-08
  1258 1.35012079E-08
  1259 1.35443013E-08
  1260 1.35389284E-08
  1261 1.35266515E-08
  1262 1.35208201E-08
  1263 1.35357454E-08
  1264 1.35348586E-08
  1265 1.35172749E-08
  1266 1.35161265E-08
  1267 1.34973602E-08
  1268 1.34991833E-08
  1269 1.34977763E-08
  1270 1.34815886E-08
  1271 1.34799281E-08
  1272 1.36057251E-08
  1273 1.36182202E-08
  1274 1.35748388E-08
  1275 1.35788853E-08
  1276 1.35555132E-08
  1277 1.35595022E-08
  1278 1.35795579E-08
  1279 1.36391863E-08
  1280 1.36684060E-08
  1281 1.36015268E-08
  1282 1.36325391E-08
  1283 1.35363518E-08
  1284 1.35402854E-08
  1285 1.35174616E-08
  1286 1.35213428E-08
  1287 1.35466959E-08
  1288 1.35555955E-08
  1289 1.35278072E-08
  1290 1.35368667E-08
  1291 1.34989570E-08
  1292 1.35027897E-08
  1293 1.34809593E-08
  1294 1.34847483E-08
  1295 1.35093121E-08
  1296 1.35185358E-08
  1297 1.34913334E-08
  1298 1.35007255E-08
  1299 1.35669723E-08
  1300 1.35807912E-08
  1301 1.35485080E-08
  1302 1.35626934E-08
  1303 1.35969949E-08
  1304 1.36155050E-08
  1305 1.35793620E-08
  1306 1.35984312E-08
  1307 1.35304457E-08
  1308 1.35450016E-08
  1309 1.35129078E-08
  1310 1.35278372E-08
  1311 1.35621387E-08
  1312 1.35817700E-08
  1313 1.35454452E-08
  1314 1.35656399E-08
  1315 1.37053682E-08
  1316 1.37493112E-08
  1317 1.36720234E-08
  1318 1.37191359E-08
  1319 1.37931641E-08
  1320 1.38189779E-08
  1321 1.37793945E-08
  1322 1.38061920E-08
  1323 1.38459265E-08
  1324 1.38738666E-08
  1325 1.38341784E-08
  1326 1.38632045E-08
  1327 1.37728239E-08
  1328 1.38318948E-08
  1329 1.36362242E-08
  1330 1.36590380E-08
  1331 1.36197984E-08
  1332 1.36433434E-08
  1333 1.36838171E-08
  1334 1.37104194E-08
  1335 1.36689307E-08
  1336 1.36964116E-08
  1337 1.36037875E-08
  1338 1.36280652E-08
  1339 1.35883081E-08
  1340 1.36133175E-08
  1341 1.36544611E-08
  1342 1.36828200E-08
  1343 1.36405198E-08
  1344 1.36697530E-08
  1345 1.37386928E-08
  1346 1.37684777E-08
  1347 1.37256275E-08
  1348 1.37564117E-08
  1349 1.38103452E-08
  1350 1.37129764E-08
  1351 1.37447567E-08
  1352 1.37008447E-08
  1353 1.37336145E-08
  1354 1.37902270E-08
  1355 1.39128368E-08
  1356 1.39740919E-08
  1357 1.38950876E-08
  1358 1.39611374E-08
  1359 1.40368023E-08
  1360 1.40999130E-08
  1361 1.40288318E-08
  1362 1.40970553E-08
  1363 1.38780739E-08
  1364 1.39489047E-08
  1365 1.38624454E-08
  1366 1.39379878E-08
  1367 1.40215477E-08
  1368 1.40948264E-08
  1369 1.39976712E-08
  1370 1.40360848E-08
  1371 1.39944418E-08
  1372 1.40523885E-08
  1373 1.40939095E-08
  1374 1.41332379E-08
  1375 1.40930218E-08
  1376 1.41335919E-08
  1377 1.41624813E-08
  1378 1.42466621E-08
  1379 1.41863797E-08
  1380 1.42541468E-08
  1381 1.42892333E-08
  1382 1.43180321E-08
  1383 1.42949409E-08
  1384 1.43250970E-08
  1385 1.43461184E-08
  1386 1.43734454E-08
  1387 1.43545467E-08
  1388 1.43832441E-08
  1389 1.43197556E-08
  1390 1.43826809E-08
  1391 1.41891252E-08
  1392 1.42621168E-08
  1393 1.41928939E-08
  1394 1.42709519E-08
  1395 1.43124548E-08
  1396 1.43465967E-08
  1397 1.43185593E-08
  1398 1.43539909E-08
  1399 1.43800428E-08
  1400 1.44127500E-08
  1401 1.43887277E-08
  1402 1.44227278E-08
  1403 1.43248691E-08
  1404 1.43615656E-08