# File generated by Flopy version 3.9.1 on 02/12/2026 at 09:37:40.
BEGIN options
  SAVE_FLOWS
END options

BEGIN dimensions
  MAXBOUND  2662
END dimensions

BEGIN period  1
  1 0.00000000E+00
  2 0.00000000E+00
  3 0.00000000E+00
  4 0.00000000E+00
  5 0.00000000E+00
  6 0.00000000E+00
  7 0.00000000E+00
  8 0.00000000E+00
  9 0.00000000E+00
  10 0.00000000E+00
  11 0.00000000E+00
  12 0.00000000E+00
  13 0.00000000E+00
  14 0.00000000E+00
  15 0.00000000E+00
  16 0.00000000E+00
  17 0.00000000E+00
  18 0.00000000E+00
  19 0.00000000E+00
  20 0.00000000E+00
  21 0.00000000E+00
  22 0.00000000E+00
  23 0.00000000E+00
  24 0.00000000E+00
  25 0.00000000E+00
  26 0.00000000E+00
  27 0.00000000E+00
  28 0.00000000E+00
  29 0.00000000E+00
  30 0.00000000E+00
  32 0.00000000E+00
  33 0.00000000E+00
  35 0.00000000E+00
  36 0.00000000E+00
  37 0.00000000E+00
  38 0.00000000E+00
  39 0.00000000E+00
  40 0.00000000E+00
  41 0.00000000E+00
  42 0.00000000E+00
  43 0.00000000E+00
  44 0.00000000E+00
  45 0.00000000E+00
  46 0.00000000E+00
  47 0.00000000E+00
  48 0.00000000E+00
  49 0.00000000E+00
  50 0.00000000E+00
  51 0.00000000E+00
  52 0.00000000E+00
  53 0.00000000E+00
  54 0.00000000E+00
  55 0.00000000E+00
  56 0.00000000E+00
  57 0.00000000E+00
  58 0.00000000E+00
  59 0.00000000E+00
  60 0.00000000E+00
  61 0.00000000E+00
  62 0.00000000E+00
  63 0.00000000E+00
  64 0.00000000E+00
  65 0.00000000E+00
  66 0.00000000E+00
  67 0.00000000E+00
  68 0.00000000E+00
  69 0.00000000E+00
  70 0.00000000E+00
  71 0.00000000E+00
  72 0.00000000E+00
  73 0.00000000E+00
  86 0.00000000E+00
  89 0.00000000E+00
  90 0.00000000E+00
  92 0.00000000E+00
  93 0.00000000E+00
  94 0.00000000E+00
  95 0.00000000E+00
  96 0.00000000E+00
  97 0.00000000E+00
  98 0.00000000E+00
  99 0.00000000E+00
  100 0.00000000E+00
  101 0.00000000E+00
  102 0.00000000E+00
  103 0.00000000E+00
  104 0.00000000E+00
  105 0.00000000E+00
  106 0.00000000E+00
  107 0.00000000E+00
  108 0.00000000E+00
  109 0.00000000E+00
  110 0.00000000E+00
  111 0.00000000E+00
  112 0.00000000E+00
  113 0.00000000E+00
  114 0.00000000E+00
  115 0.00000000E+00
  116 0.00000000E+00
  117 0.00000000E+00
  118 0.00000000E+00
  119 0.00000000E+00
  120 0.00000000E+00
  121 0.00000000E+00
  122 0.00000000E+00
  123 0.00000000E+00
  124 0.00000000E+00
  125 0.00000000E+00
  126 0.00000000E+00
  128 0.00000000E+00
  129 0.00000000E+00
  132 0.00000000E+00
  133 0.00000000E+00
  136 0.00000000E+00
  137 0.00000000E+00
  138 0.00000000E+00
  139 0.00000000E+00
  140 0.00000000E+00
  141 0.00000000E+00
  142 0.00000000E+00
  143 0.00000000E+00
  144 0.00000000E+00
  145 0.00000000E+00
  146 0.00000000E+00
  148 0.00000000E+00
  149 0.00000000E+00
  180 0.00000000E+00
  181 0.00000000E+00
  184 0.00000000E+00
  185 0.00000000E+00
  187 0.00000000E+00
  188 0.00000000E+00
  189 0.00000000E+00
  192 0.00000000E+00
  193 0.00000000E+00
  195 0.00000000E+00
  196 0.00000000E+00
  197 0.00000000E+00
  198 0.00000000E+00
  199 0.00000000E+00
  200 0.00000000E+00
  201 0.00000000E+00
  202 0.00000000E+00
  203 0.00000000E+00
  204 0.00000000E+00
  205 0.00000000E+00
  206 0.00000000E+00
  207 0.00000000E+00
  208 0.00000000E+00
  209 0.00000000E+00
  210 0.00000000E+00
  211 0.00000000E+00
  212 0.00000000E+00
  213 0.00000000E+00
  214 0.00000000E+00
  216 0.00000000E+00
  217 0.00000000E+00
  220 0.00000000E+00
  301 0.00000000E+00
  304 0.00000000E+00
  305 0.00000000E+00
  306 0.00000000E+00
  307 0.00000000E+00
  308 0.00000000E+00
  309 0.00000000E+00
  310 0.00000000E+00
  311 0.00000000E+00
  312 0.00000000E+00
  313 0.00000000E+00
  314 0.00000000E+00
  315 0.00000000E+00
  316 0.00000000E+00
  317 0.00000000E+00
  318 0.00000000E+00
  319 0.00000000E+00
  320 0.00000000E+00
  321 0.00000000E+00
  322 0.00000000E+00
  323 0.00000000E+00
  325 0.00000000E+00
  423 0.00000000E+00
  424 0.00000000E+00
  427 0.00000000E+00
  428 0.00000000E+00
  429 0.00000000E+00
  430 0.00000000E+00
  431 0.00000000E+00
  432 0.00000000E+00
  433 0.00000000E+00
  434 0.00000000E+00
  435 0.00000000E+00
  436 0.00000000E+00
  437 0.00000000E+00
  438 0.00000000E+00
  439 0.00000000E+00
  440 0.00000000E+00
  441 0.00000000E+00
  442 0.00000000E+00
  443 0.00000000E+00
  444 0.00000000E+00
  445 0.00000000E+00
  446 0.00000000E+00
  447 0.00000000E+00
  448 0.00000000E+00
  449 0.00000000E+00
  450 0.00000000E+00
  451 0.00000000E+00
  452 0.00000000E+00
  453 0.00000000E+00
  454 0.00000000E+00
  455 0.00000000E+00
  456 0.00000000E+00
  457 0.00000000E+00
  458 0.00000000E+00
  459 0.00000000E+00
  461 0.00000000E+00
  567 0.00000000E+00
  568 0.00000000E+00
  571 0.00000000E+00
  572 0.00000000E+00
  575 0.00000000E+00
  576 0.00000000E+00
  578 0.00000000E+00
  579 0.00000000E+00
  580 0.00000000E+00
  581 0.00000000E+00
  582 0.00000000E+00
  583 0.00000000E+00
  584 0.00000000E+00
  585 0.00000000E+00
  586 0.00000000E+00
  587 0.00000000E+00
  588 0.00000000E+00
  589 0.00000000E+00
  591 0.00000000E+00
  592 0.00000000E+00
  594 0.00000000E+00
  595 0.00000000E+00
  596 0.00000000E+00
  597 0.00000000E+00
  598 0.00000000E+00
  599 0.00000000E+00
  600 0.00000000E+00
  601 0.00000000E+00
  602 0.00000000E+00
  741 0.00000000E+00
  742 0.00000000E+00
  743 0.00000000E+00
  744 0.00000000E+00
  745 0.00000000E+00
  746 0.00000000E+00
  747 0.00000000E+00
  748 0.00000000E+00
  749 0.00000000E+00
  750 0.00000000E+00
  751 0.00000000E+00
  752 0.00000000E+00
  896 0.00000000E+00
  897 0.00000000E+00
  898 0.00000000E+00
  899 0.00000000E+00
  900 0.00000000E+00
  901 0.00000000E+00
  902 0.00000000E+00
  903 0.00000000E+00
  904 0.00000000E+00
  905 0.00000000E+00
  906 0.00000000E+00
  909 0.00000000E+00
  910 0.00000000E+00
  913 0.00000000E+00
  1061 0.00000000E+00
  1062 0.00000000E+00
  1063 0.00000000E+00
  1064 0.00000000E+00
  1065 0.00000000E+00
  1066 0.00000000E+00
  1067 0.00000000E+00
  1068 0.00000000E+00
  1069 0.00000000E+00
  1070 0.00000000E+00
  1071 0.00000000E+00
  1072 0.00000000E+00
  1073 0.00000000E+00
  1074 0.00000000E+00
  1075 0.00000000E+00
  1076 0.00000000E+00
  1079 0.00000000E+00
  1080 0.00000000E+00
  1083 0.00000000E+00
  1084 0.00000000E+00
  1247 0.00000000E+00
  1248 0.00000000E+00
  1249 0.00000000E+00
  1250 0.00000000E+00
  1251 0.00000000E+00
  1252 0.00000000E+00
  1253 0.00000000E+00
  1254 0.00000000E+00
  1255 0.00000000E+00
  1256 0.00000000E+00
  1257 0.00000000E+00
  1258 0.00000000E+00
  1259 0.00000000E+00
  1260 0.00000000E+00
  1261 0.00000000E+00
  1262 0.00000000E+00
  1263 0.00000000E+00
  1264 0.00000000E+00
  1265 0.00000000E+00
  1266 0.00000000E+00
  1267 0.00000000E+00
  1268 0.00000000E+00
  1269 0.00000000E+00
  1270 0.00000000E+00
  1271 0.00000000E+00
  1272 0.00000000E+00
  1273 0.00000000E+00
  1274 0.00000000E+00
  1275 0.00000000E+00
  1276 0.00000000E+00
  1277 0.00000000E+00
  1278 0.00000000E+00
  1279 0.00000000E+00
  1280 0.00000000E+00
  1281 0.00000000E+00
  1282 0.00000000E+00
  1284 0.00000000E+00
  1285 0.00000000E+00
  1288 0.00000000E+00
  1464 0.00000000E+00
  1465 0.00000000E+00
  1466 0.00000000E+00
  1467 0.00000000E+00
  1468 0.00000000E+00
  1469 0.00000000E+00
  1470 0.00000000E+00
  1471 0.00000000E+00
  1472 0.00000000E+00
  1473 0.00000000E+00
  1474 0.00000000E+00
  1475 0.00000000E+00
  1476 0.00000000E+00
  1477 0.00000000E+00
  1478 0.00000000E+00
  1479 0.00000000E+00
  1480 0.00000000E+00
  1481 0.00000000E+00
  1482 0.00000000E+00
  1483 0.00000000E+00
  1484 0.00000000E+00
  1485 0.00000000E+00
  1486 0.00000000E+00
  1487 0.00000000E+00
  1488 0.00000000E+00
  1489 0.00000000E+00
  1490 0.00000000E+00
  1491 0.00000000E+00
  1492 0.00000000E+00
  1493 0.00000000E+00
  1494 0.00000000E+00
  1496 0.00000000E+00
  1504 0.00000000E+00
  1505 0.00000000E+00
  1508 0.00000000E+00
  1509 0.00000000E+00
  1512 0.00000000E+00
  1513 0.00000000E+00
  1708 0.00000000E+00
  1709 0.00000000E+00
  1710 0.00000000E+00
  1711 0.00000000E+00
  1712 0.00000000E+00
  1713 0.00000000E+00
  1714 0.00000000E+00
  1715 0.00000000E+00
  1716 0.00000000E+00
  1717 0.00000000E+00
  1718 0.00000000E+00
  1719 0.00000000E+00
  1720 0.00000000E+00
  1721 0.00000000E+00
  1722 0.00000000E+00
  1723 0.00000000E+00
  1724 0.00000000E+00
  1725 0.00000000E+00
  1726 0.00000000E+00
  1727 0.00000000E+00
  1728 0.00000000E+00
  1729 0.00000000E+00
  1730 0.00000000E+00
  1731 0.00000000E+00
  1732 0.00000000E+00
  1733 0.00000000E+00
  1734 0.00000000E+00
  1735 0.00000000E+00
  1736 0.00000000E+00
  1737 0.00000000E+00
  1739 0.00000000E+00
  1740 0.00000000E+00
  1741 0.00000000E+00
  1742 0.00000000E+00
  1744 0.00000000E+00
  1745 0.00000000E+00
  1968 0.00000000E+00
  1969 0.00000000E+00
  1970 0.00000000E+00
  1971 0.00000000E+00
  1972 0.00000000E+00
  1973 0.00000000E+00
  1974 0.00000000E+00
  1975 0.00000000E+00
  1976 0.00000000E+00
  1977 0.00000000E+00
  1978 0.00000000E+00
  1979 0.00000000E+00
  1980 0.00000000E+00
  1981 0.00000000E+00
  1982 0.00000000E+00
  1983 0.00000000E+00
  1984 0.00000000E+00
  1985 0.00000000E+00
  1986 0.00000000E+00
  1987 0.00000000E+00
  1988 0.00000000E+00
  1989 0.00000000E+00
  1990 0.00000000E+00
  1991 0.00000000E+00
  1992 0.00000000E+00
  1993 0.00000000E+00
  1994 0.00000000E+00
  1995 0.00000000E+00
  1996 0.00000000E+00
  1997 0.00000000E+00
  1998 0.00000000E+00
  1999 0.00000000E+00
  2000 0.00000000E+00
  2244 0.00000000E+00
  2245 0.00000000E+00
  2246 0.00000000E+00
  2247 0.00000000E+00
  2248 0.00000000E+00
  2249 0.00000000E+00
  2250 0.00000000E+00
  2251 0.00000000E+00
  2252 0.00000000E+00
  2253 0.00000000E+00
  2254 0.00000000E+00
  2255 0.00000000E+00
  2256 0.00000000E+00
  2257 0.00000000E+00
  2258 0.00000000E+00
  2259 0.00000000E+00
  2260 0.00000000E+00
  2261 0.00000000E+00
  2262 0.00000000E+00
  2263 0.00000000E+00
  2264 0.00000000E+00
  2265 0.00000000E+00
  2266 0.00000000E+00
  2267 0.00000000E+00
  2268 0.00000000E+00
  2269 0.00000000E+00
  2533 0.00000000E+00
  2534 0.00000000E+00
  2535 0.00000000E+00
  2536 0.00000000E+00
  2537 0.00000000E+00
  2538 0.00000000E+00
  2539 0.00000000E+00
  2540 0.00000000E+00
  2541 0.00000000E+00
  2542 0.00000000E+00
  2543 0.00000000E+00
  2544 0.00000000E+00
  2545 0.00000000E+00
  2546 0.00000000E+00
  2547 0.00000000E+00
  2548 0.00000000E+00
  2549 0.00000000E+00
  2550 0.00000000E+00
  2554 0.00000000E+00
  2829 0.00000000E+00
  2830 0.00000000E+00
  2831 0.00000000E+00
  2832 0.00000000E+00
  2834 0.00000000E+00
  2835 0.00000000E+00
  2842 0.00000000E+00
  2843 0.00000000E+00
  3130 0.00000000E+00
  3131 0.00000000E+00
  3132 0.00000000E+00
  3133 0.00000000E+00
  3134 0.00000000E+00
  3135 0.00000000E+00
  3136 0.00000000E+00
  3137 0.00000000E+00
  3439 0.00000000E+00
  3440 0.00000000E+00
  3441 0.00000000E+00
  3442 0.00000000E+00
  3443 0.00000000E+00
  3444 0.00000000E+00
  3445 0.00000000E+00
  3447 0.00000000E+00
  3448 0.00000000E+00
  3449 0.00000000E+00
  3759 0.00000000E+00
  3760 0.00000000E+00
  3761 0.00000000E+00
  3762 0.00000000E+00
  3763 0.00000000E+00
  3765 0.00000000E+00
  4085 0.00000000E+00
  4086 0.00000000E+00
  4087 0.00000000E+00
  4088 0.00000000E+00
  4089 0.00000000E+00
  4090 0.00000000E+00
  4416 0.00000000E+00
  4417 0.00000000E+00
  4418 0.00000000E+00
  4419 0.00000000E+00
  4420 0.00000000E+00
  4421 0.00000000E+00
  4751 0.00000000E+00
  4752 0.00000000E+00
  4753 0.00000000E+00
  4754 0.00000000E+00
  4755 0.00000000E+00
  4756 0.00000000E+00
  5092 0.00000000E+00
  5093 0.00000000E+00
  5094 0.00000000E+00
  5095 0.00000000E+00
  5438 0.00000000E+00
  5439 0.00000000E+00
  5440 0.00000000E+00
  5787 0.00000000E+00
  5788 0.00000000E+00
  6137 0.00000000E+00
  6138 0.00000000E+00
  6139 0.00000000E+00
  6140 0.00000000E+00
  6141 0.00000000E+00
  6143 0.00000000E+00
  6144 0.00000000E+00
  6489 0.00000000E+00
  6491 0.00000000E+00
  6492 0.00000000E+00
  6494 0.00000000E+00
  6495 0.00000000E+00
  6496 0.00000000E+00
  6497 0.00000000E+00
  6498 0.00000000E+00
  6842 0.00000000E+00
  6843 0.00000000E+00
  6844 0.00000000E+00
  6845 0.00000000E+00
  6846 0.00000000E+00
  6847 0.00000000E+00
  6848 0.00000000E+00
  6850 0.00000000E+00
  7193 0.00000000E+00
  7194 0.00000000E+00
  7195 0.00000000E+00
  7196 0.00000000E+00
  7197 0.00000000E+00
  7198 0.00000000E+00
  7199 0.00000000E+00
  7200 0.00000000E+00
  7201 0.00000000E+00
  7544 0.00000000E+00
  7545 0.00000000E+00
  7546 0.00000000E+00
  7547 0.00000000E+00
  7548 0.00000000E+00
  7549 0.00000000E+00
  7550 0.00000000E+00
  7551 0.00000000E+00
  7894 0.00000000E+00
  7895 0.00000000E+00
  7896 0.00000000E+00
  7897 0.00000000E+00
  18551 0.00000000E+00
  18552 0.00000000E+00
  18553 0.00000000E+00
  18554 0.00000000E+00
  18555 0.00000000E+00
  18556 0.00000000E+00
  18557 0.00000000E+00
  18558 0.00000000E+00
  18559 0.00000000E+00
  18560 0.00000000E+00
  18561 0.00000000E+00
  18562 0.00000000E+00
  18563 0.00000000E+00
  18564 0.00000000E+00
  18565 0.00000000E+00
  18566 0.00000000E+00
  18567 0.00000000E+00
  18568 0.00000000E+00
  18569 0.00000000E+00
  18570 0.00000000E+00
  18571 0.00000000E+00
  18572 0.00000000E+00
  18573 0.00000000E+00
  18574 0.00000000E+00
  18575 0.00000000E+00
  18576 0.00000000E+00
  18577 0.00000000E+00
  18578 0.00000000E+00
  18579 0.00000000E+00
  18580 0.00000000E+00
  18581 0.00000000E+00
  18582 0.00000000E+00
  18583 0.00000000E+00
  18584 0.00000000E+00
  18585 0.00000000E+00
  18586 0.00000000E+00
  18587 0.00000000E+00
  18588 0.00000000E+00
  18589 0.00000000E+00
  18590 0.00000000E+00
  18591 0.00000000E+00
  18592 0.00000000E+00
  18593 0.00000000E+00
  18594 0.00000000E+00
  18595 0.00000000E+00
  18596 0.00000000E+00
  18597 0.00000000E+00
  18598 0.00000000E+00
  18599 0.00000000E+00
  18600 0.00000000E+00
  18601 0.00000000E+00
  18602 0.00000000E+00
  18603 0.00000000E+00
  18604 0.00000000E+00
  18605 0.00000000E+00
  18606 0.00000000E+00
  18607 0.00000000E+00
  18608 0.00000000E+00
  18609 0.00000000E+00
  18610 0.00000000E+00
  18611 0.00000000E+00
  18612 0.00000000E+00
  18613 0.00000000E+00
  18614 0.00000000E+00
  18615 0.00000000E+00
  18616 0.00000000E+00
  18617 0.00000000E+00
  18618 0.00000000E+00
  18619 0.00000000E+00
  18620 0.00000000E+00
  18621 0.00000000E+00
  18622 0.00000000E+00
  18623 0.00000000E+00
  18624 0.00000000E+00
  18625 0.00000000E+00
  18626 0.00000000E+00
  18627 0.00000000E+00
  18628 0.00000000E+00
  18629 0.00000000E+00
  18630 0.00000000E+00
  18631 0.00000000E+00
  18632 0.00000000E+00
  18633 0.00000000E+00
  18634 0.00000000E+00
  18635 0.00000000E+00
  18636 0.00000000E+00
  18637 0.00000000E+00
  18638 0.00000000E+00
  18639 0.00000000E+00
  18640 0.00000000E+00
  18641 0.00000000E+00
  18642 0.00000000E+00
  18643 0.00000000E+00
  18647 0.00000000E+00
  18648 0.00000000E+00
  18649 0.00000000E+00
  18650 0.00000000E+00
  18651 0.00000000E+00
  18652 0.00000000E+00
  18653 0.00000000E+00
  18654 0.00000000E+00
  18656 0.00000000E+00
  18659 0.00000000E+00
  18660 0.00000000E+00
  18661 0.00000000E+00
  18662 0.00000000E+00
  18663 0.00000000E+00
  18664 0.00000000E+00
  18665 0.00000000E+00
  18666 0.00000000E+00
  18667 0.00000000E+00
  18668 0.00000000E+00
  18669 0.00000000E+00
  18670 0.00000000E+00
  18671 0.00000000E+00
  18672 0.00000000E+00
  18673 0.00000000E+00
  18674 0.00000000E+00
  18675 0.00000000E+00
  18676 0.00000000E+00
  18677 0.00000000E+00
  18678 0.00000000E+00
  18679 0.00000000E+00
  18680 0.00000000E+00
  18681 0.00000000E+00
  18682 0.00000000E+00
  18683 0.00000000E+00
  18684 0.00000000E+00
  18685 0.00000000E+00
  18686 0.00000000E+00
  18687 0.00000000E+00
  18688 0.00000000E+00
  18689 0.00000000E+00
  18690 0.00000000E+00
  18691 0.00000000E+00
  18692 0.00000000E+00
  18693 0.00000000E+00
  18694 0.00000000E+00
  18695 0.00000000E+00
  18696 0.00000000E+00
  18697 0.00000000E+00
  18698 0.00000000E+00
  18699 0.00000000E+00
  18700 0.00000000E+00
  18701 0.00000000E+00
  18702 0.00000000E+00
  18703 0.00000000E+00
  18704 0.00000000E+00
  18705 0.00000000E+00
  18706 0.00000000E+00
  18707 0.00000000E+00
  18708 0.00000000E+00
  18709 0.00000000E+00
  18710 0.00000000E+00
  18711 0.00000000E+00
  18712 0.00000000E+00
  18713 0.00000000E+00
  18714 0.00000000E+00
  18715 0.00000000E+00
  18716 0.00000000E+00
  18717 0.00000000E+00
  18718 0.00000000E+00
  18719 0.00000000E+00
  18720 0.00000000E+00
  18721 0.00000000E+00
  18722 0.00000000E+00
  18723 0.00000000E+00
  18724 0.00000000E+00
  18725 0.00000000E+00
  18726 0.00000000E+00
  18727 0.00000000E+00
  18728 0.00000000E+00
  18729 0.00000000E+00
  18730 0.00000000E+00
  18731 0.00000000E+00
  18732 0.00000000E+00
  18733 0.00000000E+00
  18734 0.00000000E+00
  18735 0.00000000E+00
  18736 0.00000000E+00
  18737 0.00000000E+00
  18738 0.00000000E+00
  18739 0.00000000E+00
  18740 0.00000000E+00
  18741 0.00000000E+00
  18742 0.00000000E+00
  18743 0.00000000E+00
  18744 0.00000000E+00
  18745 0.00000000E+00
  18746 0.00000000E+00
  18747 0.00000000E+00
  18748 0.00000000E+00
  18749 0.00000000E+00
  18750 0.00000000E+00
  18751 0.00000000E+00
  18752 0.00000000E+00
  18753 0.00000000E+00
  18754 0.00000000E+00
  18755 0.00000000E+00
  18756 0.00000000E+00
  18757 0.00000000E+00
  18758 0.00000000E+00
  18759 0.00000000E+00
  18760 0.00000000E+00
  18761 0.00000000E+00
  18762 0.00000000E+00
  18763 0.00000000E+00
  18764 0.00000000E+00
  18765 0.00000000E+00
  18766 0.00000000E+00
  18767 0.00000000E+00
  18768 0.00000000E+00
  18769 0.00000000E+00
  18770 0.00000000E+00
  18771 0.00000000E+00
  18772 0.00000000E+00
  18773 0.00000000E+00
  18774 0.00000000E+00
  18775 0.00000000E+00
  18776 0.00000000E+00
  18777 0.00000000E+00
  18778 0.00000000E+00
  18779 0.00000000E+00
  18780 0.00000000E+00
  18781 0.00000000E+00
  18782 0.00000000E+00
  18783 0.00000000E+00
  18784 0.00000000E+00
  18785 0.00000000E+00
  18786 0.00000000E+00
  18787 0.00000000E+00
  18788 0.00000000E+00
  18789 0.00000000E+00
  18790 0.00000000E+00
  18791 0.00000000E+00
  18792 0.00000000E+00
  18793 0.00000000E+00
  18795 0.00000000E+00
  18796 0.00000000E+00
  18797 0.00000000E+00
  18798 0.00000000E+00
  18799 0.00000000E+00
  18800 0.00000000E+00
  18811 0.00000000E+00
  18832 0.00000000E+00
  18843 0.00000000E+00
  18844 0.00000000E+00
  18847 0.00000000E+00
  18848 0.00000000E+00
  18850 0.00000000E+00
  18859 0.00000000E+00
  18860 0.00000000E+00
  18861 0.00000000E+00
  18862 0.00000000E+00
  18863 0.00000000E+00
  18864 0.00000000E+00
  18865 0.00000000E+00
  18866 0.00000000E+00
  18868 0.00000000E+00
  18871 0.00000000E+00
  18872 0.00000000E+00
  18875 0.00000000E+00
  18876 0.00000000E+00
  18877 0.00000000E+00
  18878 0.00000000E+00
  18879 0.00000000E+00
  18880 0.00000000E+00
  18881 0.00000000E+00
  18882 0.00000000E+00
  18883 0.00000000E+00
  18884 0.00000000E+00
  18885 0.00000000E+00
  18886 0.00000000E+00
  18887 0.00000000E+00
  18888 0.00000000E+00
  18889 0.00000000E+00
  18890 0.00000000E+00
  18891 0.00000000E+00
  18892 0.00000000E+00
  18893 0.00000000E+00
  18894 0.00000000E+00
  18895 0.00000000E+00
  18896 0.00000000E+00
  18897 0.00000000E+00
  18898 0.00000000E+00
  18899 0.00000000E+00
  18900 0.00000000E+00
  18901 0.00000000E+00
  18902 0.00000000E+00
  18903 0.00000000E+00
  18904 0.00000000E+00
  18905 0.00000000E+00
  18906 0.00000000E+00
  18907 0.00000000E+00
  18908 0.00000000E+00
  18909 0.00000000E+00
  18910 0.00000000E+00
  18911 0.00000000E+00
  18912 0.00000000E+00
  18913 0.00000000E+00
  18914 0.00000000E+00
  18915 0.00000000E+00
  18916 0.00000000E+00
  18917 0.00000000E+00
  18918 0.00000000E+00
  18919 0.00000000E+00
  18920 0.00000000E+00
  18921 0.00000000E+00
  18922 0.00000000E+00
  18923 0.00000000E+00
  18924 0.00000000E+00
  18925 0.00000000E+00
  18926 0.00000000E+00
  18927 0.00000000E+00
  18928 0.00000000E+00
  18929 0.00000000E+00
  18930 0.00000000E+00
  18931 0.00000000E+00
  18932 0.00000000E+00
  18933 0.00000000E+00
  18934 0.00000000E+00
  18935 0.00000000E+00
  18936 0.00000000E+00
  18937 0.00000000E+00
  18938 0.00000000E+00
  18939 0.00000000E+00
  18940 0.00000000E+00
  18941 0.00000000E+00
  18942 0.00000000E+00
  18943 0.00000000E+00
  18944 0.00000000E+00
  18945 0.00000000E+00
  18946 0.00000000E+00
  18947 0.00000000E+00
  18948 0.00000000E+00
  18949 0.00000000E+00
  18950 0.00000000E+00
  18951 0.00000000E+00
  18952 0.00000000E+00
  18953 0.00000000E+00
  18954 0.00000000E+00
  18955 0.00000000E+00
  18956 0.00000000E+00
  18957 0.00000000E+00
  18958 0.00000000E+00
  18959 0.00000000E+00
  18960 0.00000000E+00
  18961 0.00000000E+00
  18962 0.00000000E+00
  18963 0.00000000E+00
  18964 0.00000000E+00
  18965 0.00000000E+00
  18966 0.00000000E+00
  18967 0.00000000E+00
  18968 0.00000000E+00
  18969 0.00000000E+00
  18970 0.00000000E+00
  18971 0.00000000E+00
  18972 0.00000000E+00
  18973 0.00000000E+00
  18974 0.00000000E+00
  18975 0.00000000E+00
  18976 0.00000000E+00
  18977 0.00000000E+00
  18978 0.00000000E+00
  18979 0.00000000E+00
  18980 0.00000000E+00
  18981 0.00000000E+00
  18984 0.00000000E+00
  18985 0.00000000E+00
  18986 0.00000000E+00
  18987 0.00000000E+00
  18988 0.00000000E+00
  18989 0.00000000E+00
  18990 0.00000000E+00
  18991 0.00000000E+00
  18992 0.00000000E+00
  18993 0.00000000E+00
  18996 0.00000000E+00
  19000 0.00000000E+00
  19001 0.00000000E+00
  19002 0.00000000E+00
  19004 0.00000000E+00
  19005 0.00000000E+00
  19016 0.00000000E+00
  19017 0.00000000E+00
  19018 0.00000000E+00
  19019 0.00000000E+00
  19020 0.00000000E+00
  19021 0.00000000E+00
  19022 0.00000000E+00
  19023 0.00000000E+00
  19028 0.00000000E+00
  19029 0.00000000E+00
  19032 0.00000000E+00
  19033 0.00000000E+00
  19034 0.00000000E+00
  19035 0.00000000E+00
  19036 0.00000000E+00
  19037 0.00000000E+00
  19038 0.00000000E+00
  19039 0.00000000E+00
  19040 0.00000000E+00
  19041 0.00000000E+00
  19042 0.00000000E+00
  19043 0.00000000E+00
  19044 0.00000000E+00
  19045 0.00000000E+00
  19046 0.00000000E+00
  19047 0.00000000E+00
  19048 0.00000000E+00
  19049 0.00000000E+00
  19050 0.00000000E+00
  19051 0.00000000E+00
  19052 0.00000000E+00
  19053 0.00000000E+00
  19054 0.00000000E+00
  19055 0.00000000E+00
  19056 0.00000000E+00
  19057 0.00000000E+00
  19058 0.00000000E+00
  19059 0.00000000E+00
  19061 0.00000000E+00
  19062 0.00000000E+00
  19063 0.00000000E+00
  19064 0.00000000E+00
  19065 0.00000000E+00
  19066 0.00000000E+00
  19067 0.00000000E+00
  19068 0.00000000E+00
  19069 0.00000000E+00
  19070 0.00000000E+00
  19073 0.00000000E+00
  19077 0.00000000E+00
  19078 0.00000000E+00
  19079 0.00000000E+00
  19080 0.00000000E+00
  19081 0.00000000E+00
  19082 0.00000000E+00
  19093 0.00000000E+00
  19193 0.00000000E+00
  19194 0.00000000E+00
  19205 0.00000000E+00
  19206 0.00000000E+00
  19207 0.00000000E+00
  19208 0.00000000E+00
  19209 0.00000000E+00
  19210 0.00000000E+00
  19211 0.00000000E+00
  19212 0.00000000E+00
  19221 0.00000000E+00
  19222 0.00000000E+00
  19223 0.00000000E+00
  19224 0.00000000E+00
  19225 0.00000000E+00
  19226 0.00000000E+00
  19227 0.00000000E+00
  19228 0.00000000E+00
  19229 0.00000000E+00
  19233 0.00000000E+00
  19234 0.00000000E+00
  19237 0.00000000E+00
  19238 0.00000000E+00
  19239 0.00000000E+00
  19240 0.00000000E+00
  19241 0.00000000E+00
  19242 0.00000000E+00
  19243 0.00000000E+00
  19244 0.00000000E+00
  19245 0.00000000E+00
  19246 0.00000000E+00
  19253 0.00000000E+00
  19254 0.00000000E+00
  19255 0.00000000E+00
  19256 0.00000000E+00
  19257 0.00000000E+00
  19258 0.00000000E+00
  19259 0.00000000E+00
  19260 0.00000000E+00
  19265 0.00000000E+00
  19266 0.00000000E+00
  19269 0.00000000E+00
  19270 0.00000000E+00
  19271 0.00000000E+00
  19272 0.00000000E+00
  19273 0.00000000E+00
  19274 0.00000000E+00
  19275 0.00000000E+00
  19276 0.00000000E+00
  19277 0.00000000E+00
  19278 0.00000000E+00
  19280 0.00000000E+00
  19281 0.00000000E+00
  19282 0.00000000E+00
  19283 0.00000000E+00
  19284 0.00000000E+00
  19285 0.00000000E+00
  19286 0.00000000E+00
  19287 0.00000000E+00
  19288 0.00000000E+00
  19289 0.00000000E+00
  19290 0.00000000E+00
  19291 0.00000000E+00
  19292 0.00000000E+00
  19293 0.00000000E+00
  19294 0.00000000E+00
  19295 0.00000000E+00
  19296 0.00000000E+00
  19297 0.00000000E+00
  19298 0.00000000E+00
  19299 0.00000000E+00
  19300 0.00000000E+00
  19301 0.00000000E+00
  19302 0.00000000E+00
  19303 0.00000000E+00
  19304 0.00000000E+00
  19305 0.00000000E+00
  19306 0.00000000E+00
  19307 0.00000000E+00
  19308 0.00000000E+00
  19309 0.00000000E+00
  19310 0.00000000E+00
  19311 0.00000000E+00
  19312 0.00000000E+00
  19313 0.00000000E+00
  19314 0.00000000E+00
  19315 0.00000000E+00
  19316 0.00000000E+00
  19317 0.00000000E+00
  19318 0.00000000E+00
  19320 0.00000000E+00
  19321 0.00000000E+00
  19322 0.00000000E+00
  19323 0.00000000E+00
  19324 0.00000000E+00
  19325 0.00000000E+00
  19326 0.00000000E+00
  19327 0.00000000E+00
  19328 0.00000000E+00
  19329 0.00000000E+00
  19332 0.00000000E+00
  19333 0.00000000E+00
  19336 0.00000000E+00
  19337 0.00000000E+00
  19338 0.00000000E+00
  19339 0.00000000E+00
  19340 0.00000000E+00
  19341 0.00000000E+00
  19342 0.00000000E+00
  19343 0.00000000E+00
  19344 0.00000000E+00
  19345 0.00000000E+00
  19352 0.00000000E+00
  19353 0.00000000E+00
  19356 0.00000000E+00
  19676 0.00000000E+00
  19677 0.00000000E+00
  19679 0.00000000E+00
  19685 0.00000000E+00
  19688 0.00000000E+00
  19689 0.00000000E+00
  19690 0.00000000E+00
  19691 0.00000000E+00
  19692 0.00000000E+00
  19693 0.00000000E+00
  19694 0.00000000E+00
  19695 0.00000000E+00
  19696 0.00000000E+00
  19697 0.00000000E+00
  19698 0.00000000E+00
  19699 0.00000000E+00
  19700 0.00000000E+00
  19701 0.00000000E+00
  19702 0.00000000E+00
  19703 0.00000000E+00
  19704 0.00000000E+00
  19705 0.00000000E+00
  19706 0.00000000E+00
  19707 0.00000000E+00
  19708 0.00000000E+00
  19709 0.00000000E+00
  19710 0.00000000E+00
  19711 0.00000000E+00
  19712 0.00000000E+00
  19713 0.00000000E+00
  19714 0.00000000E+00
  19715 0.00000000E+00
  19716 0.00000000E+00
  19717 0.00000000E+00
  19718 0.00000000E+00
  19719 0.00000000E+00
  19720 0.00000000E+00
  19721 0.00000000E+00
  19722 0.00000000E+00
  19723 0.00000000E+00
  19724 0.00000000E+00
  19725 0.00000000E+00
  19726 0.00000000E+00
  19727 0.00000000E+00
  19728 0.00000000E+00
  19729 0.00000000E+00
  19730 0.00000000E+00
  19731 0.00000000E+00
  19732 0.00000000E+00
  19733 0.00000000E+00
  19734 0.00000000E+00
  19735 0.00000000E+00
  19736 0.00000000E+00
  19737 0.00000000E+00
  19738 0.00000000E+00
  19739 0.00000000E+00
  19740 0.00000000E+00
  19741 0.00000000E+00
  19742 0.00000000E+00
  19743 0.00000000E+00
  19744 0.00000000E+00
  19745 0.00000000E+00
  19746 0.00000000E+00
  19747 0.00000000E+00
  19748 0.00000000E+00
  19749 0.00000000E+00
  19750 0.00000000E+00
  19751 0.00000000E+00
  19752 0.00000000E+00
  19753 0.00000000E+00
  19757 0.00000000E+00
  19758 0.00000000E+00
  19759 0.00000000E+00
  19760 0.00000000E+00
  19761 0.00000000E+00
  19763 0.00000000E+00
  20149 0.00000000E+00
  20150 0.00000000E+00
  20153 0.00000000E+00
  20154 0.00000000E+00
  20155 0.00000000E+00
  20156 0.00000000E+00
  20165 0.00000000E+00
  20166 0.00000000E+00
  20167 0.00000000E+00
  20168 0.00000000E+00
  20169 0.00000000E+00
  20170 0.00000000E+00
  20171 0.00000000E+00
  20172 0.00000000E+00
  20173 0.00000000E+00
  20174 0.00000000E+00
  20176 0.00000000E+00
  20177 0.00000000E+00
  20178 0.00000000E+00
  20179 0.00000000E+00
  20180 0.00000000E+00
  20181 0.00000000E+00
  20182 0.00000000E+00
  20183 0.00000000E+00
  20184 0.00000000E+00
  20185 0.00000000E+00
  20186 0.00000000E+00
  20187 0.00000000E+00
  20188 0.00000000E+00
  20189 0.00000000E+00
  20190 0.00000000E+00
  20191 0.00000000E+00
  20192 0.00000000E+00
  20193 0.00000000E+00
  20194 0.00000000E+00
  20195 0.00000000E+00
  20196 0.00000000E+00
  20197 0.00000000E+00
  20198 0.00000000E+00
  20199 0.00000000E+00
  20200 0.00000000E+00
  20201 0.00000000E+00
  20202 0.00000000E+00
  20203 0.00000000E+00
  20204 0.00000000E+00
  20205 0.00000000E+00
  20206 0.00000000E+00
  20207 0.00000000E+00
  20208 0.00000000E+00
  20209 0.00000000E+00
  20210 0.00000000E+00
  20211 0.00000000E+00
  20212 0.00000000E+00
  20213 0.00000000E+00
  20214 0.00000000E+00
  20215 0.00000000E+00
  20216 0.00000000E+00
  20217 0.00000000E+00
  20218 0.00000000E+00
  20219 0.00000000E+00
  20220 0.00000000E+00
  20221 0.00000000E+00
  20222 0.00000000E+00
  20223 0.00000000E+00
  20224 0.00000000E+00
  20225 0.00000000E+00
  20226 0.00000000E+00
  20227 0.00000000E+00
  20228 0.00000000E+00
  20229 0.00000000E+00
  20230 0.00000000E+00
  20231 0.00000000E+00
  20232 0.00000000E+00
  20233 0.00000000E+00
  20234 0.00000000E+00
  20235 0.00000000E+00
  20236 0.00000000E+00
  20237 0.00000000E+00
  20238 0.00000000E+00
  20239 0.00000000E+00
  20240 0.00000000E+00
  20241 0.00000000E+00
  20242 0.00000000E+00
  20243 0.00000000E+00
  20244 0.00000000E+00
  20245 0.00000000E+00
  20246 0.00000000E+00
  20247 0.00000000E+00
  20248 0.00000000E+00
  20249 0.00000000E+00
  20250 0.00000000E+00
  20251 0.00000000E+00
  20252 0.00000000E+00
  20253 0.00000000E+00
  20254 0.00000000E+00
  20255 0.00000000E+00
  20256 0.00000000E+00
  20257 0.00000000E+00
  20258 0.00000000E+00
  20259 0.00000000E+00
  20260 0.00000000E+00
  20261 0.00000000E+00
  20262 0.00000000E+00
  20263 0.00000000E+00
  20264 0.00000000E+00
  20265 0.00000000E+00
  20266 0.00000000E+00
  20267 0.00000000E+00
  20268 0.00000000E+00
  20269 0.00000000E+00
  20270 0.00000000E+00
  20271 0.00000000E+00
  20272 0.00000000E+00
  20273 0.00000000E+00
  20274 0.00000000E+00
  20275 0.00000000E+00
  20276 0.00000000E+00
  20277 0.00000000E+00
  20278 0.00000000E+00
  20279 0.00000000E+00
  20280 0.00000000E+00
  20281 0.00000000E+00