# File generated by Flopy version 3.9.1 on 02/12/2026 at 09:37:41.
BEGIN options
  FIXED_CELL
  PRINT_FLOWS
  SAVE_FLOWS
END options

BEGIN dimensions
  MAXBOUND  18550
END dimensions

BEGIN period  1
  1 1.03011482E-08
  2 1.02718377E-08
  3 1.01142815E-08
  4 1.02830185E-08
  5 1.03874984E-08
  6 1.00938066E-08
  7 1.02131109E-08
  8 1.05998331E-08
  9 1.04536858E-08
  10 1.07824271E-08
  11 1.12396884E-08
  12 1.16607613E-08
  13 1.20728006E-08
  14 1.24581705E-08
  15 1.28071590E-08
  16 1.31156883E-08
  17 1.33589081E-08
  18 1.35865326E-08
  19 1.13037454E-08
  20 1.08428607E-08
  21 1.04590917E-08
  22 1.08576005E-08
  23 1.04461359E-08
  24 1.01577263E-08
  25 9.98156353E-09
  26 1.01193015E-08
  27 9.92675092E-09
  28 9.95876746E-09
  29 1.00926108E-08
  30 9.90182981E-09
  31 1.00484412E-08
  32 1.03604082E-08
  33 1.07223135E-08
  34 1.03396297E-08
  35 1.07755896E-08
  36 1.12075887E-08
  37 1.16575328E-08
  38 1.12381131E-08
  39 1.17081368E-08
  40 1.20917084E-08
  41 1.24924762E-08
  42 1.21556891E-08
  43 1.25637565E-08
  44 1.28510815E-08
  45 1.31417712E-08
  46 1.29248867E-08
  47 1.32154394E-08
  48 1.34104935E-08
  49 1.36373975E-08
  50 1.34809695E-08
  51 1.37032208E-08
  52 1.38254505E-08
  53 1.39776814E-08
  54 1.38857105E-08
  55 1.40317850E-08
  56 1.41443817E-08
  57 1.42259842E-08
  58 1.40205675E-08
  59 1.39595208E-08
  60 1.39170444E-08
  61 1.38525678E-08
  62 1.37615860E-08
  63 1.27760603E-08
  64 1.24279023E-08
  65 1.18575016E-08
  66 1.14098789E-08
  67 1.20288695E-08
  68 1.15897521E-08
  69 1.09513242E-08
  70 1.05229281E-08
  71 1.11345897E-08
  72 1.07043512E-08
  73 1.01787974E-08
  74 9.97441195E-09
  75 1.03550940E-08
  76 1.01459994E-08
  77 9.94780822E-09
  78 1.01035184E-08
  79 1.01184632E-08
  80 1.02775522E-08
  81 1.04107635E-08
  82 1.08663678E-08
  83 1.06243032E-08
  84 1.10547706E-08
  85 1.13423963E-08
  86 1.18200754E-08
  87 1.15280151E-08
  88 1.19977806E-08
  89 1.22694768E-08
  90 1.26747953E-08
  91 1.24353089E-08
  92 1.28264367E-08
  93 1.30300678E-08
  94 1.33135686E-08
  95 1.31463452E-08
  96 1.34357813E-08
  97 1.35705417E-08
  98 1.37839447E-08
  99 1.36786488E-08
  100 1.38789689E-08
  101 1.39576249E-08
  102 1.40950548E-08
  103 1.40406380E-08
  104 1.41670273E-08
  105 1.41991533E-08
  106 1.42722856E-08
  107 1.42608599E-08
  108 1.43242448E-08
  109 1.43163736E-08
  110 1.43330864E-08
  111 1.43588091E-08
  112 1.43659079E-08
  113 1.43469076E-08
  114 1.43035373E-08
  115 1.39390583E-08
  116 1.39596158E-08
  117 1.40089782E-08
  118 1.39738156E-08
  119 1.39915336E-08
  120 1.40232403E-08
  121 1.40357207E-08
  122 1.40118660E-08
  123 1.40326807E-08
  124 1.40435001E-08
  125 1.40429505E-08
  126 1.40508139E-08
  127 1.40623539E-08
  128 1.40299596E-08
  129 1.39659277E-08
  130 1.40629465E-08
  131 1.40150466E-08
  132 1.39154286E-08
  133 1.38395589E-08
  134 1.39804866E-08
  135 1.39220695E-08
  136 1.37338156E-08
  137 1.35935779E-08
  138 1.38356411E-08
  139 1.37170687E-08
  140 1.34141033E-08
  141 1.32254405E-08
  142 1.35621834E-08
  143 1.34019928E-08
  144 1.29545415E-08
  145 1.26320052E-08
  146 1.31633159E-08
  147 1.28771099E-08
  148 1.22591885E-08
  149 1.18451956E-08
  150 1.25441815E-08
  151 1.21720758E-08
  152 1.14118973E-08
  153 1.09982536E-08
  154 1.17798680E-08
  155 1.14026525E-08
  156 1.06593783E-08
  157 1.04549736E-08
  158 1.10913711E-08
  159 1.09023653E-08
  160 1.04275741E-08
  161 1.05825686E-08
  162 1.08764137E-08
  163 1.10664642E-08
  164 1.09316866E-08
  165 1.13456982E-08
  166 1.13575267E-08
  167 1.17352173E-08
  168 1.17970525E-08
  169 1.22413962E-08
  170 1.21448082E-08
  171 1.25460840E-08
  172 1.26522075E-08
  173 1.30171840E-08
  174 1.29156501E-08
  175 1.32241391E-08
  176 1.33130622E-08
  177 1.35805290E-08
  178 1.35061256E-08
  179 1.37451035E-08
  180 1.38039156E-08
  181 1.39871342E-08
  182 1.39441789E-08
  183 1.41067491E-08
  184 1.41338159E-08
  185 1.42469906E-08
  186 1.42358695E-08
  187 1.43340000E-08
  188 1.43290059E-08
  189 1.43815813E-08
  190 1.44029495E-08
  191 1.44439318E-08
  192 1.44059484E-08
  193 1.44030679E-08
  194 1.44576993E-08
  195 1.44447544E-08
  196 1.43739280E-08
  197 1.43199269E-08
  198 1.44056532E-08
  199 1.43414103E-08
  200 1.42433248E-08
  201 1.42539969E-08
  202 1.41468742E-08
  203 1.40254380E-08
  204 1.38989227E-08
  205 1.34456867E-08
  206 1.34005077E-08
  207 1.34612760E-08
  208 1.38845409E-08
  209 1.39008635E-08
  210 1.38746375E-08
  211 1.38844531E-08
  212 1.39093616E-08
  213 1.39147982E-08
  214 1.38860613E-08
  215 1.38850400E-08
  216 1.39207376E-08
  217 1.39301820E-08
  218 1.38860529E-08
  219 1.38928510E-08
  220 1.39452372E-08
  221 1.39665870E-08
  222 1.39081884E-08
  223 1.39330994E-08
  224 1.39933712E-08
  225 1.40232771E-08
  226 1.39667458E-08
  227 1.40065535E-08
  228 1.40528168E-08
  229 1.40777177E-08
  230 1.40486004E-08
  231 1.40881452E-08
  232 1.40933322E-08
  233 1.40632027E-08
  234 1.41201696E-08
  235 1.41093103E-08
  236 1.40463685E-08
  237 1.40074740E-08
  238 1.41117654E-08
  239 1.40941224E-08
  240 1.39428591E-08
  241 1.38490867E-08
  242 1.40533312E-08
  243 1.39868158E-08
  244 1.37228422E-08
  245 1.35964266E-08
  246 1.38923400E-08
  247 1.38037115E-08
  248 1.33970087E-08
  249 1.31564248E-08
  250 1.36489093E-08
  251 1.34610522E-08
  252 1.28754364E-08
  253 1.25602867E-08
  254 1.32413014E-08
  255 1.29948801E-08
  256 1.22268486E-08
  257 1.19047436E-08
  258 1.27342370E-08
  259 1.24823143E-08
  260 1.16376480E-08
  261 1.14745723E-08
  262 1.22730081E-08
  263 1.21446188E-08
  264 1.14514419E-08
  265 1.16381905E-08
  266 1.22026481E-08
  267 1.23010225E-08
  268 1.18871818E-08
  269 1.22099880E-08
  270 1.24954685E-08
  271 1.27486741E-08
  272 1.25596647E-08
  273 1.29021269E-08
  274 1.30242928E-08
  275 1.32958842E-08
  276 1.32177631E-08
  277 1.34790396E-08
  278 1.35480363E-08
  279 1.37548292E-08
  280 1.37206968E-08
  281 1.39257726E-08
  282 1.39507659E-08
  283 1.41180220E-08
  284 1.40965881E-08
  285 1.42356605E-08
  286 1.42577661E-08
  287 1.43713567E-08
  288 1.43451997E-08
  289 1.44269045E-08
  290 1.44599602E-08
  291 1.45243801E-08
  292 1.44819139E-08
  293 1.45108474E-08
  294 1.45649978E-08
  295 1.45817859E-08
  296 1.45139191E-08
  297 1.44911326E-08
  298 1.45743910E-08
  299 1.45423025E-08
  300 1.44425784E-08
  301 1.43688533E-08
  302 1.44851371E-08
  303 1.44030609E-08
  304 1.42715957E-08
  305 1.41540825E-08
  306 1.42973533E-08
  307 1.41710570E-08
  308 1.40233627E-08
  309 1.38844984E-08
  310 1.40316560E-08
  311 1.38833627E-08
  312 1.37481285E-08
  313 1.36253087E-08
  314 1.37378855E-08
  315 1.36069961E-08
  316 1.35020610E-08
  317 1.34320272E-08
  318 1.34018530E-08
  319 1.34119450E-08
  320 1.33400040E-08
  321 1.32586742E-08
  322 1.33618608E-08
  323 1.34191447E-08
  324 1.38479819E-08
  325 1.34396752E-08
  326 1.38453602E-08
  327 1.38640304E-08
  328 1.38656417E-08
  329 1.38529677E-08
  330 1.38445816E-08
  331 1.38585695E-08
  332 1.38493570E-08
  333 1.38269219E-08
  334 1.38073137E-08
  335 1.38439062E-08
  336 1.38469074E-08
  337 1.37940822E-08
  338 1.37920555E-08
  339 1.38618924E-08
  340 1.38902985E-08
  341 1.38060316E-08
  342 1.38379024E-08
  343 1.39312705E-08
  344 1.39818619E-08
  345 1.38867368E-08
  346 1.39490686E-08
  347 1.40375692E-08
  348 1.40930433E-08
  349 1.40196286E-08
  350 1.40922892E-08
  351 1.41427934E-08
  352 1.41525239E-08
  353 1.41609668E-08
  354 1.41923718E-08
  355 1.41755635E-08
  356 1.41805024E-08
  357 1.42369734E-08
  358 1.42653759E-08
  359 1.41649811E-08
  360 1.41273999E-08
  361 1.42759572E-08
  362 1.42681540E-08
  363 1.40582489E-08
  364 1.40184323E-08
  365 1.42337720E-08
  366 1.42352223E-08
  367 1.39116117E-08
  368 1.37809302E-08
  369 1.41776629E-08
  370 1.41058145E-08
  371 1.36282583E-08
  372 1.34580214E-08
  373 1.40224044E-08
  374 1.39311871E-08
  375 1.32791546E-08
  376 1.31071829E-08
  377 1.38375927E-08
  378 1.37494593E-08
  379 1.29645802E-08
  380 1.28766540E-08
  381 1.36771575E-08
  382 1.36320066E-08
  383 1.29532149E-08
  384 1.30185586E-08
  385 1.37216253E-08
  386 1.37522643E-08
  387 1.31505685E-08
  388 1.33250066E-08
  389 1.38189964E-08
  390 1.39115361E-08
  391 1.35179087E-08
  392 1.37113811E-08
  393 1.40189410E-08
  394 1.41321271E-08
  395 1.38764591E-08
  396 1.40425062E-08
  397 1.42266647E-08
  398 1.43328219E-08
  399 1.41896287E-08
  400 1.43168661E-08
  401 1.44304024E-08
  402 1.45171796E-08
  403 1.44240078E-08
  404 1.45110911E-08
  405 1.45914906E-08
  406 1.46520111E-08
  407 1.45781300E-08
  408 1.46249654E-08
  409 1.46975870E-08
  410 1.47270982E-08
  411 1.46511850E-08
  412 1.46561004E-08
  413 1.47393530E-08
  414 1.47330257E-08
  415 1.46387923E-08
  416 1.45982482E-08
  417 1.47066621E-08
  418 1.46587839E-08
  419 1.45336260E-08
  420 1.44446722E-08
  421 1.45881281E-08
  422 1.44940528E-08
  423 1.43323008E-08
  424 1.42011686E-08
  425 1.43771195E-08
  426 1.42423149E-08
  427 1.40534896E-08
  428 1.38980991E-08
  429 1.40903476E-08
  430 1.39306509E-08
  431 1.37457248E-08
  432 1.36086479E-08
  433 1.37740482E-08
  434 1.36330667E-08
  435 1.34988092E-08
  436 1.34256173E-08
  437 1.35199703E-08
  438 1.34444550E-08
  439 1.33942306E-08
  440 1.34049429E-08
  441 1.34118259E-08
  442 1.34223384E-08
  443 1.34537981E-08
  444 1.35340266E-08
  445 1.34718401E-08
  446 1.35532822E-08
  447 1.36376840E-08
  448 1.36584369E-08
  449 1.37792946E-08
  450 1.39089237E-08
  451 1.40418266E-08
  452 1.31501806E-08
  453 1.30077027E-08
  454 1.31782360E-08
  455 1.32836649E-08
  456 1.33869373E-08
  457 1.33134798E-08
  458 1.34156278E-08
  459 1.34622888E-08
  460 1.38443804E-08
  461 1.34872818E-08
  462 1.38457974E-08
  463 1.38419560E-08
  464 1.38217744E-08
  465 1.38318656E-08
  466 1.37982220E-08
  467 1.37915999E-08
  468 1.37601008E-08
  469 1.37537345E-08
  470 1.37085605E-08
  471 1.37369923E-08
  472 1.37287003E-08
  473 1.36739889E-08
  474 1.36583003E-08
  475 1.37410444E-08
  476 1.37764185E-08
  477 1.36684954E-08
  478 1.37075041E-08
  479 1.38337302E-08
  480 1.39088091E-08
  481 1.37739578E-08
  482 1.38627664E-08
  483 1.39954016E-08
  484 1.40864103E-08
  485 1.39664524E-08
  486 1.40767534E-08
  487 1.41750284E-08
  488 1.42288798E-08
  489 1.41860176E-08
  490 1.43126819E-08
  491 1.42956418E-08
  492 1.43478934E-08
  493 1.43517292E-08
  494 1.44276670E-08
  495 1.43847636E-08
  496 1.43967004E-08
  497 1.44791548E-08
  498 1.45313510E-08
  499 1.44068820E-08
  500 1.44491180E-08
  501 1.45746282E-08
  502 1.46557986E-08
  503 1.44400989E-08
  504 1.44260933E-08
  505 1.46928029E-08
  506 1.47333242E-08
  507 1.44106901E-08
  508 1.43970178E-08
  509 1.47817169E-08
  510 1.48404871E-08
  511 1.43871015E-08
  512 1.43812498E-08
  513 1.49084596E-08
  514 1.49789343E-08
  515 1.43779206E-08
  516 1.44768940E-08
  517 1.50393392E-08
  518 1.51714059E-08
  519 1.44701868E-08
  520 1.44668719E-08
  521 1.51683645E-08
  522 1.51337141E-08
  523 1.44700222E-08
  524 1.44829665E-08
  525 1.50784647E-08
  526 1.50183246E-08
  527 1.45073999E-08
  528 1.45260272E-08
  529 1.49664766E-08
  530 1.49138449E-08
  531 1.45689680E-08
  532 1.46170023E-08
  533 1.48932332E-08
  534 1.48872979E-08
  535 1.46664975E-08
  536 1.47140039E-08
  537 1.48919912E-08
  538 1.49027965E-08
  539 1.47564699E-08
  540 1.47912794E-08
  541 1.49154421E-08
  542 1.49261759E-08
  543 1.48161781E-08
  544 1.48291491E-08
  545 1.49317792E-08
  546 1.49294515E-08
  547 1.48282805E-08
  548 1.48116657E-08
  549 1.49166559E-08
  550 1.48909857E-08
  551 1.47773709E-08
  552 1.47235074E-08
  553 1.48500998E-08
  554 1.47917661E-08
  555 1.46484451E-08
  556 1.45512013E-08
  557 1.47140514E-08
  558 1.46171592E-08
  559 1.44341384E-08
  560 1.42962407E-08
  561 1.44994907E-08
  562 1.43626637E-08
  563 1.41429390E-08
  564 1.39820167E-08
  565 1.42110470E-08
  566 1.40520536E-08
  567 1.38241513E-08
  568 1.36818163E-08
  569 1.38959756E-08
  570 1.37549286E-08
  571 1.35673060E-08
  572 1.34903957E-08
  573 1.36409325E-08
  574 1.35636204E-08
  575 1.34564727E-08
  576 1.34658411E-08
  577 1.35283876E-08
  578 1.35356731E-08
  579 1.35143521E-08
  580 1.35949256E-08
  581 1.35815372E-08
  582 1.36591256E-08
  583 1.36992868E-08
  584 1.38193811E-08
  585 1.37603625E-08
  586 1.38773440E-08
  587 1.39482430E-08
  588 1.40803546E-08
  589 1.40032044E-08
  590 1.41324822E-08
  591 1.42116492E-08
  592 1.43393251E-08
  593 1.42611358E-08
  594 1.43863676E-08
  595 1.26101905E-08
  596 1.28744399E-08
  597 1.30391625E-08
  598 1.32132068E-08
  599 1.30804249E-08
  600 1.32560798E-08
  601 1.33487697E-08
  602 1.34484458E-08
  603 1.33903052E-08
  604 1.34860717E-08
  605 1.38476835E-08
  606 1.38506875E-08
  607 1.38682409E-08
  608 1.38605083E-08
  609 1.38240397E-08
  610 1.37755853E-08
  611 1.38203829E-08
  612 1.37563138E-08
  613 1.37153250E-08
  614 1.36550248E-08
  615 1.36794233E-08
  616 1.36031522E-08
  617 1.36070829E-08
  618 1.35837552E-08
  619 1.35419473E-08
  620 1.35097378E-08
  621 1.35914746E-08
  622 1.36343418E-08
  623 1.35149256E-08
  624 1.35619288E-08
  625 1.37105720E-08
  626 1.38139250E-08
  627 1.36483903E-08
  628 1.37667121E-08
  629 1.39354680E-08
  630 1.40656034E-08
  631 1.39063265E-08
  632 1.40561973E-08
  633 1.42180421E-08
  634 1.43437914E-08
  635 1.42288556E-08
  636 1.43755291E-08
  637 1.44580966E-08
  638 1.45047934E-08
  639 1.45109613E-08
  640 1.45683932E-08
  641 1.45812270E-08
  642 1.46605171E-08
  643 1.46793137E-08
  644 1.47833098E-08
  645 1.47346492E-08
  646 1.48086927E-08
  647 1.48851888E-08
  648 1.49910492E-08
  649 1.49306854E-08
  650 1.50204899E-08
  651 1.51497377E-08
  652 1.52820582E-08
  653 1.51260877E-08
  654 1.52493664E-08
  655 1.54364485E-08
  656 1.56142070E-08
  657 1.53862724E-08
  658 1.55239159E-08
  659 1.58088388E-08
  660 1.60023186E-08
  661 1.57330621E-08
  662 1.57940238E-08
  663 1.62426874E-08
  664 1.63297392E-08
  665 1.57938069E-08
  666 1.57317439E-08
  667 1.63315541E-08
  668 1.62468877E-08
  669 1.56256438E-08
  670 1.55018035E-08
  671 1.60989719E-08
  672 1.59225892E-08
  673 1.53832545E-08
  674 1.52681485E-08
  675 1.57354494E-08
  676 1.55814975E-08
  677 1.51913070E-08
  678 1.51373226E-08
  679 1.54571623E-08
  680 1.53621994E-08
  681 1.51018752E-08
  682 1.50796073E-08
  683 1.52921822E-08
  684 1.52411789E-08
  685 1.50652653E-08
  686 1.50541776E-08
  687 1.52032339E-08
  688 1.51730098E-08
  689 1.50423436E-08
  690 1.50263279E-08
  691 1.51459356E-08
  692 1.51181096E-08
  693 1.50030872E-08
  694 1.49698111E-08
  695 1.50861135E-08
  696 1.50468343E-08
  697 1.49238317E-08
  698 1.48626447E-08
  699 1.49973577E-08
  700 1.49349743E-08
  701 1.47840783E-08
  702 1.46888818E-08
  703 1.48587577E-08
  704 1.47658040E-08
  705 1.45736715E-08
  706 1.44405487E-08
  707 1.46552148E-08
  708 1.45281794E-08
  709 1.42934982E-08
  710 1.41394354E-08
  711 1.43882627E-08
  712 1.42417842E-08
  713 1.39880538E-08
  714 1.38508338E-08
  715 1.40976694E-08
  716 1.39665409E-08
  717 1.37392380E-08
  718 1.36625459E-08
  719 1.38590729E-08
  720 1.37840109E-08
  721 1.36260815E-08
  722 1.36304878E-08
  723 1.37465296E-08
  724 1.37475169E-08
  725 1.36722179E-08
  726 1.37448799E-08
  727 1.37839572E-08
  728 1.38501107E-08
  729 1.38408276E-08
  730 1.39524949E-08
  731 1.39389540E-08
  732 1.40434222E-08
  733 1.40732458E-08
  734 1.41977523E-08
  735 1.41572279E-08
  736 1.42752515E-08
  737 1.43220332E-08
  738 1.44433023E-08
  739 1.43936112E-08
  740 1.45095451E-08
  741 1.03840049E-08
  742 1.09828699E-08
  743 1.15169703E-08
  744 1.19369930E-08
  745 1.23273651E-08
  746 1.19794298E-08
  747 1.23825271E-08
  748 1.26540567E-08
  749 1.29248456E-08
  750 1.27177262E-08
  751 1.29911707E-08
  752 1.31329073E-08
  753 1.33079375E-08
  754 1.31980440E-08
  755 1.33699437E-08
  756 1.34390021E-08
  757 1.35293975E-08
  758 1.34959317E-08
  759 1.35795514E-08
  760 1.38959210E-08
  761 1.38771212E-08
  762 1.39323746E-08
  763 1.39027487E-08
  764 1.38233902E-08
  765 1.37436899E-08
  766 1.38360739E-08
  767 1.37417193E-08
  768 1.36502015E-08
  769 1.35580246E-08
  770 1.36328058E-08
  771 1.35259624E-08
  772 1.34836789E-08
  773 1.34428139E-08
  774 1.34396452E-08
  775 1.33910088E-08
  776 1.34457400E-08
  777 1.34971160E-08
  778 1.33924138E-08
  779 1.34482159E-08
  780 1.35938688E-08
  781 1.37269098E-08
  782 1.35546790E-08
  783 1.37012295E-08
  784 1.38839676E-08
  785 1.40711980E-08
  786 1.38882732E-08
  787 1.40778797E-08
  788 1.42443306E-08
  789 1.44102892E-08
  790 1.42680011E-08
  791 1.44506897E-08
  792 1.45649488E-08
  793 1.46426295E-08
  794 1.46218966E-08
  795 1.47809973E-08
  796 1.47736556E-08
  797 1.48992940E-08
  798 1.48647793E-08
  799 1.50084267E-08
  800 1.50250742E-08
  801 1.51578601E-08
  802 1.51536840E-08
  803 1.53078818E-08
  804 1.53470292E-08
  805 1.55139626E-08
  806 1.55207081E-08
  807 1.57136017E-08
  808 1.57074133E-08
  809 1.59281478E-08
  810 1.59355337E-08
  811 1.61868084E-08
  812 1.61677596E-08
  813 1.64822128E-08
  814 1.64576935E-08
  815 1.67867084E-08
  816 1.66627945E-08
  817 1.67693137E-08
  818 1.69888502E-08
  819 1.71081191E-08
  820 1.67725433E-08
  821 1.66707114E-08
  822 1.71123522E-08
  823 1.69992339E-08
  824 1.64909273E-08
  825 1.62741752E-08
  826 1.67980698E-08
  827 1.65448272E-08
  828 1.60449724E-08
  829 1.58491784E-08
  830 1.62950106E-08
  831 1.60688965E-08
  832 1.56868306E-08
  833 1.55585580E-08
  834 1.58782250E-08
  835 1.57244424E-08
  836 1.54600134E-08
  837 1.53849817E-08
  838 1.56034932E-08
  839 1.55091944E-08
  840 1.53271109E-08
  841 1.52806715E-08
  842 1.54351198E-08
  843 1.53754333E-08
  844 1.52407486E-08
  845 1.52031508E-08
  846 1.53251065E-08
  847 1.52798329E-08
  848 1.51642170E-08
  849 1.51206289E-08
  850 1.52358330E-08
  851 1.51896681E-08
  852 1.50692977E-08
  853 1.50073639E-08
  854 1.51381304E-08
  855 1.50795772E-08
  856 1.49345829E-08
  857 1.48462890E-08
  858 1.50105009E-08
  859 1.49284582E-08
  860 1.47422272E-08
  861 1.46233112E-08
  862 1.48325352E-08
  863 1.47233759E-08
  864 1.44926637E-08
  865 1.43559420E-08
  866 1.46036502E-08
  867 1.44783218E-08
  868 1.42211902E-08
  869 1.40980227E-08
  870 1.43544987E-08
  871 1.42407121E-08
  872 1.39961639E-08
  873 1.39236922E-08
  874 1.41456518E-08
  875 1.40766489E-08
  876 1.38855619E-08
  877 1.38829141E-08
  878 1.40383791E-08
  879 1.40322156E-08
  880 1.39133450E-08
  881 1.39718930E-08
  882 1.40563873E-08
  883 1.41067688E-08
  884 1.40522976E-08
  885 1.41481229E-08
  886 1.41779428E-08
  887 1.42641882E-08
  888 1.42535313E-08
  889 1.43636816E-08
  890 1.43601945E-08
  891 1.44614601E-08
  892 1.44748330E-08
  893 1.45842689E-08
  894 1.45644289E-08
  895 1.46664564E-08
  896 7.41887397E-09
  897 7.36498872E-09
  898 7.67087147E-09
  899 8.26012625E-09
  900 8.98046885E-09
  901 9.73428316E-09
  902 1.04497896E-08
  903 9.76670933E-09
  904 1.05218766E-08
  905 1.10960805E-08
  906 1.16715697E-08
  907 1.12022812E-08
  908 1.17809908E-08
  909 1.20565802E-08
  910 1.24669448E-08
  911 1.22773320E-08
  912 1.25820450E-08
  913 1.27993875E-08
  914 1.30751900E-08
  915 1.29094916E-08
  916 1.31708714E-08
  917 1.32772157E-08
  918 1.34433083E-08
  919 1.33716555E-08
  920 1.35292217E-08
  921 1.35623033E-08
  922 1.39741982E-08
  923 1.36394103E-08
  924 1.38903626E-08
  925 1.39794225E-08
  926 1.39398436E-08
  927 1.40389170E-08
  928 1.39908684E-08
  929 1.38617532E-08
  930 1.37548173E-08
  931 1.39037094E-08
  932 1.37872921E-08
  933 1.36329175E-08
  934 1.35139497E-08
  935 1.36560239E-08
  936 1.35286720E-08
  937 1.34179708E-08
  938 1.33636550E-08
  939 1.34263545E-08
  940 1.33686846E-08
  941 1.33641239E-08
  942 1.34240595E-08
  943 1.33692700E-08
  944 1.34325788E-08
  945 1.35388094E-08
  946 1.36965123E-08
  947 1.35532910E-08
  948 1.37289995E-08
  949 1.38965106E-08
  950 1.40996638E-08
  951 1.39281013E-08
  952 1.41403009E-08
  953 1.43032868E-08
  954 1.44992577E-08
  955 1.43530183E-08
  956 1.45580929E-08
  957 1.46836087E-08
  958 1.48559215E-08
  959 1.47516226E-08
  960 1.49332707E-08
  961 1.49533911E-08
  962 1.51109938E-08
  963 1.50402782E-08
  964 1.52075547E-08
  965 1.52709219E-08
  966 1.54406519E-08
  967 1.53771992E-08
  968 1.55565099E-08
  969 1.56700356E-08
  970 1.58799014E-08
  971 1.57954378E-08
  972 1.60134164E-08
  973 1.61193858E-08
  974 1.63883919E-08
  975 1.62597385E-08
  976 1.65339464E-08
  977 1.67541713E-08
  978 1.70080581E-08
  979 1.68959630E-08
  980 1.71497580E-08
  981 1.72203874E-08
  982 1.73457320E-08
  983 1.73613263E-08
  984 1.74862737E-08
  985 1.73506904E-08
  986 1.72323643E-08
  987 1.74916644E-08
  988 1.73740168E-08
  989 1.70204877E-08
  990 1.67532600E-08
  991 1.71617485E-08
  992 1.68924267E-08
  993 1.64855602E-08
  994 1.62404807E-08
  995 1.66189956E-08
  996 1.63656583E-08
  997 1.60309334E-08
  998 1.58591705E-08
  999 1.61460213E-08
  1000 1.59631762E-08
  1001 1.57216775E-08
  1002 1.56126432E-08
  1003 1.58144320E-08
  1004 1.56947110E-08
  1005 1.55259048E-08
  1006 1.54558107E-08
  1007 1.55984635E-08
  1008 1.55205161E-08
  1009 1.53974477E-08
  1010 1.53465595E-08
  1011 1.54562941E-08
  1012 1.54017413E-08
  1013 1.52993570E-08
  1014 1.52523451E-08
  1015 1.53531460E-08
  1016 1.53069944E-08
  1017 1.52022310E-08
  1018 1.51481142E-08
  1019 1.52611497E-08
  1020 1.52117329E-08
  1021 1.50847081E-08
  1022 1.50103102E-08
  1023 1.51553670E-08
  1024 1.50898415E-08
  1025 1.49238486E-08
  1026 1.48256994E-08
  1027 1.50139175E-08
  1028 1.49277045E-08
  1029 1.47180822E-08
  1030 1.46052674E-08
  1031 1.48329842E-08
  1032 1.47333622E-08
  1033 1.44934257E-08
  1034 1.43899999E-08
  1035 1.46341151E-08
  1036 1.45416473E-08
  1037 1.43026303E-08
  1038 1.42378716E-08
  1039 1.44625911E-08
  1040 1.44027396E-08
  1041 1.42000800E-08
  1042 1.41908179E-08
  1043 1.43661063E-08
  1044 1.43543892E-08
  1045 1.42089176E-08
  1046 1.42510862E-08
  1047 1.43669603E-08
  1048 1.44013068E-08
  1049 1.43127722E-08
  1050 1.43890112E-08
  1051 1.44537171E-08
  1052 1.45199857E-08
  1053 1.44750704E-08
  1054 1.45668373E-08
  1055 1.45959812E-08
  1056 1.46780141E-08
  1057 1.46609821E-08
  1058 1.47549640E-08
  1059 1.47630176E-08
  1060 1.48485875E-08
  1061 1.29115647E-08
  1062 1.29376087E-08
  1063 1.28607891E-08
  1064 1.26606582E-08
  1065 1.24255890E-08
  1066 1.19632888E-08
  1067 1.10687195E-08
  1068 1.03100793E-08
  1069 1.13525124E-08
  1070 1.06030439E-08
  1071 9.46043726E-09
  1072 8.61039585E-09
  1073 9.75776920E-09
  1074 8.90770523E-09
  1075 7.89338725E-09
  1076 7.45587905E-09
  1077 8.18627126E-09
  1078 7.74332240E-09
  1079 7.39796935E-09
  1080 7.72340382E-09
  1081 7.68201412E-09
  1082 8.00710578E-09
  1083 8.34635198E-09
  1084 9.08767618E-09
  1085 8.60246543E-09
  1086 9.36777605E-09
  1087 9.89767904E-09
  1088 1.06849960E-08
  1089 1.01714213E-08
  1090 1.09235861E-08
  1091 1.13704540E-08
  1092 1.19452817E-08
  1093 1.15849431E-08
  1094 1.21774710E-08
  1095 1.24330817E-08
  1096 1.28465865E-08
  1097 1.26317092E-08
  1098 1.30335285E-08
  1099 1.31770472E-08
  1100 1.34401116E-08
  1101 1.33347303E-08
  1102 1.35799177E-08
  1103 1.34823344E-08
  1104 1.36287587E-08
  1105 1.37681248E-08
  1106 1.39564201E-08
  1107 1.39299478E-08
  1108 1.39695399E-08
  1109 1.40314009E-08
  1110 1.40621853E-08
  1111 1.41125547E-08
  1112 1.40580110E-08
  1113 1.40507569E-08
  1114 1.41428974E-08
  1115 1.39647553E-08
  1116 1.38427114E-08
  1117 1.40468211E-08
  1118 1.39233157E-08
  1119 1.37065310E-08
  1120 1.35753486E-08
  1121 1.37869636E-08
  1122 1.36567098E-08
  1123 1.34706499E-08
  1124 1.34122518E-08
  1125 1.35536523E-08
  1126 1.34970407E-08
  1127 1.34138252E-08
  1128 1.34792573E-08
  1129 1.34997481E-08
  1130 1.35659702E-08
  1131 1.36100612E-08
  1132 1.37834719E-08
  1133 1.36987752E-08
  1134 1.38707265E-08
  1135 1.39861820E-08
  1136 1.42021938E-08
  1137 1.40716199E-08
  1138 1.42860128E-08
  1139 1.44190162E-08
  1140 1.46285802E-08
  1141 1.45018328E-08
  1142 1.47112190E-08
  1143 1.48270161E-08
  1144 1.50139270E-08
  1145 1.49102939E-08
  1146 1.50984641E-08
  1147 1.51262284E-08
  1148 1.52988958E-08
  1149 1.52417827E-08
  1150 1.53859875E-08
  1151 1.54734151E-08
  1152 1.56566012E-08
  1153 1.55609151E-08
  1154 1.57428316E-08
  1155 1.58557617E-08
  1156 1.61163904E-08
  1157 1.59381916E-08
  1158 1.61926795E-08
  1159 1.63596766E-08
  1160 1.67001266E-08
  1161 1.65243257E-08
  1162 1.67496392E-08
  1163 1.69775580E-08
  1164 1.72195789E-08
  1165 1.70087193E-08
  1166 1.72294698E-08
  1167 1.74204718E-08
  1168 1.75390302E-08
  1169 1.74115459E-08
  1170 1.75186170E-08
  1171 1.75443875E-08
  1172 1.74325670E-08
  1173 1.75232127E-08
  1174 1.74210468E-08
  1175 1.72252474E-08
  1176 1.69682238E-08
  1177 1.72293892E-08
  1178 1.69894548E-08
  1179 1.66999600E-08
  1180 1.64478801E-08
  1181 1.67352270E-08
  1182 1.64921296E-08
  1183 1.62258456E-08
  1184 1.60378414E-08
  1185 1.62738581E-08
  1186 1.60853192E-08
  1187 1.58822936E-08
  1188 1.57552277E-08
  1189 1.59263231E-08
  1190 1.57943523E-08
  1191 1.56520618E-08
  1192 1.55683959E-08
  1193 1.56861433E-08
  1194 1.55983629E-08
  1195 1.55002082E-08
  1196 1.54437747E-08
  1197 1.55277493E-08
  1198 1.54710215E-08
  1199 1.53955196E-08
  1200 1.53522457E-08
  1201 1.54247629E-08
  1202 1.53865876E-08
  1203 1.53115576E-08
  1204 1.52687048E-08
  1205 1.53521544E-08
  1206 1.53173805E-08
  1207 1.52206942E-08
  1208 1.51651571E-08
  1209 1.52790446E-08
  1210 1.52345689E-08
  1211 1.51006693E-08
  1212 1.50270741E-08
  1213 1.51823181E-08
  1214 1.51218717E-08
  1215 1.49457390E-08
  1216 1.48596547E-08
  1217 1.50542159E-08
  1218 1.49817921E-08
  1219 1.47732786E-08
  1220 1.46920663E-08
  1221 1.49083347E-08
  1222 1.48384643E-08
  1223 1.46217242E-08
  1224 1.45673301E-08
  1225 1.47770669E-08
  1226 1.47285745E-08
  1227 1.45325505E-08
  1228 1.45191644E-08
  1229 1.46963172E-08
  1230 1.46821077E-08
  1231 1.45270004E-08
  1232 1.45542431E-08
  1233 1.46861441E-08
  1234 1.47072104E-08
  1235 1.45979595E-08
  1236 1.46546729E-08
  1237 1.47430697E-08
  1238 1.47909208E-08
  1239 1.47208512E-08
  1240 1.47932465E-08
  1241 1.48478086E-08
  1242 1.49109292E-08
  1243 1.48690833E-08
  1244 1.49461248E-08
  1245 1.49778171E-08
  1246 1.50464289E-08
  1247 1.01893018E-08
  1248 1.00318374E-08
  1249 9.93913729E-09
  1250 8.83371762E-09
  1251 8.18777831E-09
  1252 7.67559456E-09
  1253 7.39366537E-09
  1254 7.40255438E-09
  1255 7.71802344E-09
  1256 8.29993509E-09
  1257 9.82532104E-09
  1258 9.03420083E-09
  1259 9.82538604E-09
  1260 1.05405857E-08
  1261 1.12568163E-08
  1262 1.05934516E-08
  1263 1.13518791E-08
  1264 1.18255296E-08
  1265 1.22886282E-08
  1266 1.19569836E-08
  1267 1.24504949E-08
  1268 1.26452669E-08
  1269 1.28987269E-08
  1270 1.28335593E-08
  1271 1.31111908E-08
  1272 1.31181118E-08
  1273 1.31666001E-08
  1274 1.33627118E-08
  1275 1.34185014E-08
  1276 1.31125515E-08
  1277 1.30185899E-08
  1278 1.34593037E-08
  1279 1.33165067E-08
  1280 1.27236381E-08
  1281 1.22910249E-08
  1282 1.30542695E-08
  1283 1.26611513E-08
  1284 1.17137677E-08
  1285 1.10025096E-08
  1286 1.21332124E-08
  1287 1.14836784E-08
  1288 1.02004392E-08
  1289 9.39276713E-09
  1290 1.07560169E-08
  1291 1.00272803E-08
  1292 8.70691451E-09
  1293 8.28372377E-09
  1294 9.41131127E-09
  1295 9.03082597E-09
  1296 8.22104784E-09
  1297 8.52510638E-09
  1298 8.97122849E-09
  1299 9.23975588E-09
  1300 9.07972360E-09
  1301 9.80635061E-09
  1302 9.72485726E-09
  1303 1.03816903E-08
  1304 1.05635761E-08
  1305 1.12791976E-08
  1306 1.10684625E-08
  1307 1.17174837E-08
  1308 1.19003145E-08
  1309 1.24209301E-08
  1310 1.22786536E-08
  1311 1.27462649E-08
  1312 1.28909933E-08
  1313 1.32428215E-08
  1314 1.31257232E-08
  1315 1.34802701E-08
  1316 1.35230968E-08
  1317 1.37396126E-08
  1318 1.37277622E-08
  1319 1.39177873E-08
  1320 1.39092308E-08
  1321 1.40832959E-08
  1322 1.42797652E-08
  1323 1.43799817E-08
  1324 1.41469993E-08
  1325 1.41691558E-08
  1326 1.42768636E-08
  1327 1.42908394E-08
  1328 1.41513693E-08
  1329 1.42463711E-08
  1330 1.42678108E-08
  1331 1.42113625E-08
  1332 1.41506728E-08
  1333 1.40296591E-08
  1334 1.42758461E-08
  1335 1.41605933E-08
  1336 1.38975232E-08
  1337 1.37724820E-08
  1338 1.40361547E-08
  1339 1.39195707E-08
  1340 1.36745489E-08
  1341 1.36217296E-08
  1342 1.38292354E-08
  1343 1.37814348E-08
  1344 1.36258762E-08
  1345 1.37005566E-08
  1346 1.37993646E-08
  1347 1.38624960E-08
  1348 1.38230526E-08
  1349 1.39889172E-08
  1350 1.39777701E-08
  1351 1.41336800E-08
  1352 1.41829161E-08
  1353 1.43906421E-08
  1354 1.43165844E-08
  1355 1.45134569E-08
  1356 1.46007226E-08
  1357 1.48056047E-08
  1358 1.47138339E-08
  1359 1.49105543E-08
  1360 1.50013733E-08
  1361 1.51490856E-08
  1362 1.50598361E-08
  1363 1.52412760E-08
  1364 1.53280849E-08
  1365 1.54699361E-08
  1366 1.54153540E-08
  1367 1.55842592E-08
  1368 1.56414143E-08
  1369 1.58177455E-08
  1370 1.57168770E-08
  1371 1.58843249E-08
  1372 1.60043430E-08
  1373 1.63758390E-08
  1374 1.62615961E-08
  1375 1.64178263E-08
  1376 1.65635374E-08
  1377 1.67665538E-08
  1378 1.65846969E-08
  1379 1.67615031E-08
  1380 1.70017986E-08
  1381 1.71946702E-08
  1382 1.69704212E-08
  1383 1.71320164E-08
  1384 1.73522267E-08
  1385 1.74440445E-08
  1386 1.72621323E-08
  1387 1.73365521E-08
  1388 1.74469158E-08
  1389 1.73536359E-08
  1390 1.73358287E-08
  1391 1.72534250E-08
  1392 1.71843046E-08
  1393 1.69674398E-08
  1394 1.71063185E-08
  1395 1.69151070E-08
  1396 1.67333681E-08
  1397 1.65046401E-08
  1398 1.67041324E-08
  1399 1.64924752E-08
  1400 1.62943709E-08
  1401 1.61083493E-08
  1402 1.62922769E-08
  1403 1.61100734E-08
  1404 1.59479643E-08