# File generated by Flopy version 3.9.1 on 02/11/2026 at 08:00:54.
BEGIN options
  BUDGET  FILEOUT  quadtree_caseB.cbc
  HEAD  FILEOUT  quadtree_caseB.hds
END options

BEGIN period  1
  SAVE  HEAD  LAST
  SAVE  BUDGET  LAST
  PRINT  BUDGET  LAST
END period  1

