# File generated by Flopy version 3.9.1 on 01/21/2026 at 07:07:05.
BEGIN options
  SAVE_FLOWS
END options

BEGIN dimensions
  MAXBOUND  72657
END dimensions

BEGIN period  1
  76239 -9.44106831E-04
  77109 -0.00000000E+00
  77111 -0.00000000E+00
  77112 -0.00000000E+00
  77138 -5.24503795E-04
  77140 -5.24503795E-04
  77146 -1.57351139E-03
  77149 -5.24503795E-04
  77150 -1.36370987E-03
  77151 -5.24503795E-04
  77152 -1.36370987E-03
  77153 -9.44106831E-04
  77157 -1.04900759E-03
  77158 -1.99311442E-03
  77159 -1.25880911E-03
  77160 -3.56662581E-03
  78005 -0.00000000E+00
  78007 -8.39206072E-04
  78008 -0.00000000E+00
  78010 -0.00000000E+00
  78011 -0.00000000E+00
  78013 -0.00000000E+00
  78016 -0.00000000E+00
  78017 -0.00000000E+00
  78018 -0.00000000E+00
  78019 -0.00000000E+00
  78028 -0.00000000E+00
  78030 -0.00000000E+00
  78040 -7.55285465E-03
  78041 -8.39206072E-04
  78042 -1.70988237E-02
  78043 -6.60874782E-03
  78047 -8.39206072E-04
  78048 -8.39206072E-04
  78049 -4.11210975E-02
  78050 -2.93722125E-03
  78051 -5.55974023E-03
  78052 -1.25880911E-03
  78053 -3.56662581E-03
  78054 -3.04212201E-03
  78055 -9.54596907E-03
  78056 -5.76954175E-03
  78058 -6.09473410E-02
  78060 -7.31158290E-02
  78061 -2.50398112E-01
  78062 -9.02146528E-02
  78063 -2.68126340E-01
  78064 -2.06654495E-02
  78065 -7.02835085E-03
  78066 -7.29060275E-02
  78067 -2.33928693E-02
  78069 -5.24503795E-04
  78070 -1.04900759E-03
  78071 -6.29404554E-04
  78072 -3.14702277E-04
  78073 -2.09801518E-04
  78074 -9.44106831E-04
  78075 -8.39206072E-04
  78076 -2.09801518E-03
  78077 -9.44106831E-04
  78078 -2.09801518E-03
  78079 -9.44106831E-04
  78080 -2.09801518E-04
  78081 -8.39206072E-04
  78082 -2.09801518E-04
  78083 -1.36370987E-03
  78899 -0.00000000E+00
  78910 -0.00000000E+00
  78911 -5.24503795E-04
  78913 -3.14702277E-04
  78915 -0.00000000E+00
  78916 -5.24503795E-04
  78917 -0.00000000E+00
  78922 -0.00000000E+00
  78923 -0.00000000E+00
  78924 -0.00000000E+00
  78925 -0.00000000E+00
  78926 -0.00000000E+00
  78927 -8.39206072E-04
  78928 -0.00000000E+00
  78929 -0.00000000E+00
  78930 -2.93722125E-03
  78931 -5.55974023E-03
  78932 -7.34305313E-04
  78933 -5.03523643E-03
  78934 -0.00000000E+00
  78935 -0.00000000E+00
  78936 -0.00000000E+00
  78937 -0.00000000E+00
  78938 -1.99311442E-03
  78939 -5.03523643E-03
  78940 -1.99311442E-03
  78941 -1.09096789E-02
  78942 -9.02146528E-02
  78943 -2.68126340E-01
  78944 -8.81166376E-03
  78945 -1.13292820E-01
  78946 -7.29060275E-02
  78947 -2.33928693E-02
  78948 -7.29060275E-02
  78949 -2.33928693E-02
  78950 -1.39727811E-01
  78951 -1.13292820E-01
  78952 -2.02458465E-02
  78953 -5.14013719E-03
  78954 -8.39206072E-02
  78955 -1.02802744E-02
  78956 -5.87444251E-03
  78957 -2.51761822E-03
  78958 -2.09801518E-03
  78959 -9.44106831E-04
  78960 -1.67841214E-03
  78961 -2.72741973E-03
  78962 -2.09801518E-04
  78963 -1.36370987E-03
  78964 -1.04900759E-03
  78966 -2.62251898E-03
  78967 -1.99311442E-03
  78968 -7.02835085E-03
  78970 -1.15390835E-03
  78971 -1.78331290E-03
  79742 -0.00000000E+00
  79743 -2.09801518E-04
  79745 -2.09801518E-04
  79754 -3.14702277E-04
  79755 -2.09801518E-04
  79756 -3.14702277E-04
  79757 -2.09801518E-04
  79760 -4.19603036E-04
  79761 -0.00000000E+00
  79772 -0.00000000E+00
  79773 -3.14702277E-04
  79798 -0.00000000E+00
  79799 -0.00000000E+00
  79800 -0.00000000E+00
  79801 -0.00000000E+00
  79806 -0.00000000E+00
  79807 -0.00000000E+00
  79808 -0.00000000E+00
  79809 -0.00000000E+00
  79810 -0.00000000E+00
  79811 -0.00000000E+00
  79812 -0.00000000E+00
  79813 -3.14702277E-04
  79814 -1.99311442E-03
  79815 -1.09096789E-02
  79816 -3.14702277E-04
  79817 -1.30076941E-02
  79818 -0.00000000E+00
  79819 -3.14702277E-03
  79820 -0.00000000E+00
  79821 -3.14702277E-03
  79822 -1.42665032E-02
  79823 -8.49696148E-03
  79824 -1.42665032E-02
  79825 -8.49696148E-03
  79826 -2.02458465E-02
  79827 -5.14013719E-03
  79828 -2.62251898E-03
  79829 -2.30781670E-03
  79830 -5.87444251E-03
  79831 -2.51761822E-03
  79832 -1.78331290E-03
  79833 -8.39206072E-04
  79834 -2.20291594E-03
  79835 -0.00000000E+00
  79836 -2.20291594E-03
  79837 -0.00000000E+00
  79838 -0.00000000E+00
  79839 -6.29404554E-04
  79840 -0.00000000E+00
  79841 -6.29404554E-04
  79842 -7.02835085E-03
  79843 -6.60874782E-03
  79844 -2.09801518E-04
  79845 -6.29404554E-04
  79848 -1.99311442E-03
  79850 -6.29404554E-04
  79851 -3.14702277E-04
  79852 -6.29404554E-04
  79853 -3.14702277E-04
  79854 -6.08424402E-03
  80569 -0.00000000E+00
  80571 -1.04900759E-04
  80580 -0.00000000E+00
  80581 -3.14702277E-04
  80582 -3.14702277E-04
  80583 -5.24503795E-04
  80584 -0.00000000E+00
  80585 -0.00000000E+00
  80586 -0.00000000E+00
  80587 -1.04900759E-04
  80588 -0.00000000E+00
  80589 -1.04900759E-04
  80590 -0.00000000E+00
  80591 -1.04900759E-04
  80592 -2.09801518E-04
  80593 -7.34305313E-04
  80594 -2.09801518E-04
  80595 -7.34305313E-04
  80596 -3.14702277E-04
  80597 -4.19603036E-04
  80598 -5.24503795E-04
  80599 -9.44106831E-04
  80604 -5.24503795E-04
  80605 -9.44106831E-04
  80606 -5.24503795E-04
  80607 -9.44106831E-04
  80608 -8.39206072E-04
  80609 -5.24503795E-04
  80610 -8.39206072E-04
  80611 -5.24503795E-04
  80616 -1.04900759E-04
  80617 -2.09801518E-04
  80618 -5.24503795E-04
  80619 -5.24503795E-04
  80620 -6.18914478E-03
  80621 -1.25880911E-03
  80622 -6.18914478E-03
  80623 -1.25880911E-03
  80624 -9.44106831E-04
  80625 -4.19603036E-03
  80626 -9.44106831E-04
  80627 -4.19603036E-03
  80628 -7.34305313E-04
  80629 -0.00000000E+00
  80630 -4.19603036E-04
  80631 -3.67152657E-03
  80632 -7.34305313E-04
  80633 -3.14702277E-04
  80634 -1.15390835E-03
  80635 -2.09801518E-03
  80636 -2.20291594E-03
  80637 -6.50384706E-03
  80638 -2.20291594E-03
  80639 -6.50384706E-03
  80640 -1.04900759E-02
  80641 -5.24503795E-03
  80642 -1.04900759E-02
  80643 -5.24503795E-03
  80644 -3.14702277E-04
  80645 -2.41271746E-03
  80646 -2.09801518E-03
  80647 -2.93722125E-03
  80648 -4.19603036E-04
  80649 -2.09801518E-03
  80650 -1.88821366E-03
  80651 -0.00000000E+00
  80652 -5.24503795E-03
  80653 -2.93722125E-03
  80654 -5.24503795E-03
  80655 -2.93722125E-03
  80656 -4.19603036E-04
  80657 -0.00000000E+00
  80658 -4.19603036E-04
  80659 -0.00000000E+00
  80660 -5.24503795E-04
  80661 -0.00000000E+00
  80662 -0.00000000E+00
  80663 -0.00000000E+00
  80664 -0.00000000E+00
  80665 -0.00000000E+00
  80666 -0.00000000E+00
  80667 -0.00000000E+00
  80668 -0.00000000E+00
  80669 -0.00000000E+00
  80670 -0.00000000E+00
  80671 -0.00000000E+00
  80672 -6.29404554E-04
  80673 -1.04900759E-04
  80674 -6.29404554E-04
  80675 -1.04900759E-04
  80676 -0.00000000E+00
  80677 -1.88821366E-03
  80678 -0.00000000E+00
  80679 -1.57351139E-03
  80684 -2.09801518E-03
  80686 -2.09801518E-03
  81356 -1.04900759E-04
  81358 -1.04900759E-04
  81359 -2.09801518E-04
  81360 -7.34305313E-04
  81361 -1.04900759E-04
  81362 -2.09801518E-04
  81364 -0.00000000E+00
  81366 -0.00000000E+00
  81367 -2.30781670E-03
  81368 -5.24503795E-04
  81369 -2.30781670E-03
  81370 -5.24503795E-04
  81371 -8.39206072E-04
  81372 -5.24503795E-04
  81373 -2.20291594E-03
  81374 -2.09801518E-04
  81375 -3.14702277E-04
  81376 -2.09801518E-04
  81377 -0.00000000E+00
  81378 -0.00000000E+00
  81379 -4.19603036E-04
  81380 -1.04900759E-04
  81381 -4.19603036E-04
  81382 -1.04900759E-04
  81383 -0.00000000E+00
  81384 -0.00000000E+00
  81385 -0.00000000E+00
  81386 -0.00000000E+00
  81387 -2.09801518E-04
  81388 -3.14702277E-04
  81389 -1.04900759E-03
  81390 -4.19603036E-04
  81391 -6.29404554E-04
  81392 -1.04900759E-03
  81393 -1.04900759E-04
  81394 -3.14702277E-04
  81395 -0.00000000E+00
  81396 -1.04900759E-04
  81397 -0.00000000E+00
  81398 -1.04900759E-04
  81399 -0.00000000E+00
  81400 -1.04900759E-04
  81401 -0.00000000E+00
  81402 -1.04900759E-04
  81403 -5.76954175E-03
  81404 -1.13292820E-02
  81405 -5.24503795E-04
  81406 -4.38485173E-02
  81407 -1.46861063E-03
  81408 -1.25880911E-03
  81409 -1.16439843E-02
  81410 -7.34305313E-04
  81411 -4.19603036E-04
  81412 -1.00704729E-02
  81413 -4.19603036E-04
  81414 -1.00704729E-02
  81415 -2.20291594E-03
  81416 -6.29404554E-04
  81417 -2.20291594E-03
  81418 -6.29404554E-04
  81419 -1.25880911E-03
  81420 -1.67841214E-03
  81421 -7.34305313E-04
  81422 -9.44106831E-04
  81423 -0.00000000E+00
  81424 -0.00000000E+00
  81425 -0.00000000E+00
  81426 -0.00000000E+00
  81427 -6.29404554E-04
  81428 -1.15390835E-03
  81429 -6.29404554E-04
  81430 -1.15390835E-03
  81431 -5.24503795E-04
  81432 -0.00000000E+00
  81433 -5.24503795E-04
  81434 -0.00000000E+00
  81435 -0.00000000E+00
  81436 -0.00000000E+00
  81437 -0.00000000E+00
  81438 -0.00000000E+00
  81439 -1.46861063E-03
  81440 -1.04900759E-03
  81441 -0.00000000E+00
  81442 -6.29404554E-04
  81443 -0.00000000E+00
  81444 -0.00000000E+00
  81445 -0.00000000E+00
  81446 -0.00000000E+00
  81447 -0.00000000E+00
  81448 -0.00000000E+00
  81449 -0.00000000E+00
  81450 -0.00000000E+00
  81451 -0.00000000E+00
  81453 -1.04900759E-03
  81459 -4.19603036E-04
  81461 -4.19603036E-04
  82000 -2.09801518E-04
  82001 -2.09801518E-04
  82002 -1.04900759E-03
  82003 -0.00000000E+00
  82006 -0.00000000E+00
  82007 -0.00000000E+00
  82010 -3.14702277E-04
  82011 -3.14702277E-04
  82012 -0.00000000E+00
  82013 -0.00000000E+00
  82014 -0.00000000E+00
  82015 -0.00000000E+00
  82016 -3.14702277E-04
  82017 -3.14702277E-04
  82018 -3.14702277E-04
  82019 -3.14702277E-04
  82028 -0.00000000E+00
  82041 -1.04900759E-04
  82042 -1.04900759E-04
  82043 -0.00000000E+00
  82045 -1.04900759E-04
  82046 -0.00000000E+00
  82047 -0.00000000E+00
  82048 -1.04900759E-04
  82049 -0.00000000E+00
  82050 -0.00000000E+00
  82051 -0.00000000E+00
  82052 -1.04900759E-04
  82053 -0.00000000E+00
  82054 -1.04900759E-04
  82055 -2.09801518E-04
  82056 -0.00000000E+00
  82057 -8.39206072E-04
  82058 -7.34305313E-04
  82059 -4.19603036E-04
  82060 -1.04900759E-04
  82061 -2.09801518E-04
  82062 -1.04900759E-04
  82063 -1.04900759E-04
  82064 -7.34305313E-04
  82065 -4.19603036E-04
  82066 -7.34305313E-04
  82067 -1.04900759E-04
  82068 -1.04900759E-04
  82069 -1.04900759E-04
  82070 -0.00000000E+00
  82071 -0.00000000E+00
  82072 -0.00000000E+00
  82073 -0.00000000E+00
  82074 -0.00000000E+00
  82075 -0.00000000E+00
  82076 -0.00000000E+00
  82077 -0.00000000E+00
  82078 -1.04900759E-04
  82079 -1.04900759E-04
  82080 -0.00000000E+00
  82081 -0.00000000E+00
  82082 -0.00000000E+00
  82083 -0.00000000E+00
  82084 -0.00000000E+00
  82085 -0.00000000E+00
  82086 -1.04900759E-04
  82087 -0.00000000E+00
  82088 -0.00000000E+00
  82089 -2.09801518E-04
  82090 -0.00000000E+00
  82091 -0.00000000E+00
  82092 -1.04900759E-04
  82093 -0.00000000E+00
  82094 -0.00000000E+00
  82095 -4.19603036E-04
  82096 -0.00000000E+00
  82097 -0.00000000E+00
  82098 -0.00000000E+00
  82099 -2.09801518E-04
  82100 -3.14702277E-04
  82101 -1.67841214E-03
  82102 -8.39206072E-04
  82103 -1.46861063E-03
  82104 -4.51073264E-03
  82105 -1.04900759E-04
  82106 -1.57351139E-03
  82107 -0.00000000E+00
  82108 -8.39206072E-04
  82109 -1.46861063E-03
  82110 -9.44106831E-04
  82111 -5.24503795E-04
  82112 -1.57351139E-03
  82113 -0.00000000E+00
  82114 -9.44106831E-04
  82115 -5.24503795E-04
  82116 -1.04900759E-04
  82117 -0.00000000E+00
  82118 -0.00000000E+00
  82119 -7.34305313E-04
  82120 -0.00000000E+00
  82121 -0.00000000E+00
  82122 -0.00000000E+00
  82123 -1.04900759E-04
  82124 -0.00000000E+00
  82125 -7.34305313E-04
  82126 -5.24503795E-04
  82127 -0.00000000E+00
  82128 -0.00000000E+00
  82129 -1.04900759E-04
  82130 -0.00000000E+00
  82131 -2.09801518E-04
  82132 -0.00000000E+00
  82133 -2.09801518E-04
  82134 -0.00000000E+00
  82135 -0.00000000E+00
  82136 -0.00000000E+00
  82137 -0.00000000E+00
  82138 -0.00000000E+00
  82139 -0.00000000E+00
  82140 -0.00000000E+00
  82141 -0.00000000E+00
  82142 -0.00000000E+00
  82143 -2.09801518E-03
  82144 -0.00000000E+00
  82145 -0.00000000E+00
  82146 -2.30781670E-03
  82147 -2.09801518E-04
  82158 -7.34305313E-04
  82159 -2.09801518E-04
  82162 -5.24503795E-04
  82636 -0.00000000E+00
  82637 -0.00000000E+00
  82639 -0.00000000E+00
  82640 -0.00000000E+00
  82641 -0.00000000E+00
  82643 -0.00000000E+00
  82645 -0.00000000E+00
  82646 -0.00000000E+00
  82647 -0.00000000E+00
  82648 -0.00000000E+00
  82649 -0.00000000E+00
  82650 -0.00000000E+00
  82651 -3.14702277E-04
  82652 -0.00000000E+00
  82653 -3.14702277E-04
  82654 -1.04900759E-03
  82655 -0.00000000E+00
  82656 -2.09801518E-04
  82657 -1.04900759E-04
  82658 -0.00000000E+00
  82659 -3.14702277E-04
  82660 -0.00000000E+00
  82661 -3.14702277E-04
  82662 -2.09801518E-04
  82663 -1.04900759E-04
  82664 -0.00000000E+00
  82665 -0.00000000E+00
  82666 -0.00000000E+00
  82667 -0.00000000E+00
  82668 -0.00000000E+00
  82669 -0.00000000E+00
  82670 -1.04900759E-04
  82671 -2.09801518E-04
  82672 -0.00000000E+00
  82673 -2.72741973E-03
  82674 -0.00000000E+00
  82675 -0.00000000E+00
  82676 -0.00000000E+00
  82677 -0.00000000E+00
  82678 -0.00000000E+00
  82680 -0.00000000E+00
  82698 -1.04900759E-04
  82699 -1.04900759E-04
  82700 -5.24503795E-04
  82701 -5.24503795E-04
  82702 -1.04900759E-04
  82703 -1.04900759E-04
  82704 -5.24503795E-04
  82705 -1.15390835E-03
  82706 -5.24503795E-04
  82707 -5.24503795E-04
  82708 -4.19603036E-04
  82709 -5.24503795E-04
  82710 -5.24503795E-04
  82711 -1.15390835E-03
  82712 -5.24503795E-04
  82713 -4.19603036E-04
  82714 -0.00000000E+00
  82715 -4.19603036E-04
  82716 -4.19603036E-04
  82717 -7.34305313E-04
  82718 -3.14702277E-04
  82719 -1.04900759E-04
  82720 -3.14702277E-04
  82721 -0.00000000E+00
  82722 -4.19603036E-04
  82723 -7.34305313E-04
  82724 -1.04900759E-04
  82725 -3.46172505E-03
  82726 -3.14702277E-04
  82727 -0.00000000E+00
  82728 -0.00000000E+00
  82729 -0.00000000E+00
  82730 -0.00000000E+00
  82731 -0.00000000E+00
  82732 -2.09801518E-04
  82733 -0.00000000E+00
  82734 -0.00000000E+00
  82735 -0.00000000E+00
  82736 -0.00000000E+00
  82737 -0.00000000E+00
  82738 -2.09801518E-04
  82739 -0.00000000E+00
  82740 -0.00000000E+00
  82741 -0.00000000E+00
  82742 -0.00000000E+00
  82743 -0.00000000E+00
  82744 -0.00000000E+00
  82745 -0.00000000E+00
  82746 -0.00000000E+00
  82747 -6.29404554E-04
  82748 -2.09801518E-04
  82749 -1.04900759E-04
  82750 -2.09801518E-04
  82751 -6.29404554E-04
  82752 -2.09801518E-04
  82753 -0.00000000E+00
  82754 -2.09801518E-04
  82755 -1.04900759E-04
  82756 -0.00000000E+00
  82757 -0.00000000E+00
  82758 -2.09801518E-04
  82759 -0.00000000E+00
  82760 -0.00000000E+00
  82761 -0.00000000E+00
  82762 -0.00000000E+00
  82763 -0.00000000E+00
  82764 -0.00000000E+00
  82765 -1.04900759E-04
  82766 -1.04900759E-04
  82767 -6.29404554E-04
  82768 -0.00000000E+00
  82769 -6.29404554E-04
  82770 -0.00000000E+00
  82771 -1.04900759E-04
  82772 -0.00000000E+00
  82773 -0.00000000E+00
  82774 -0.00000000E+00
  82775 -6.29404554E-04
  82776 -1.04900759E-04
  82777 -4.19603036E-04
  82778 -6.29404554E-04
  82779 -2.09801518E-04
  82780 -6.29404554E-04
  82781 -0.00000000E+00
  82782 -0.00000000E+00
  82783 -1.04900759E-04
  82784 -1.04900759E-04
  82785 -1.04900759E-04
  82786 -6.29404554E-04
  82787 -0.00000000E+00
  82788 -4.19603036E-04
  82789 -3.14702277E-04
  82790 -1.04900759E-04
  82791 -1.04900759E-04
  82792 -3.14702277E-04
  82793 -6.29404554E-04
  82794 -1.04900759E-04
  82795 -1.88821366E-03
  82796 -1.57351139E-03
  82797 -2.09801518E-04
  82798 -1.25880911E-03
  82799 -1.88821366E-03
  82800 -1.04900759E-04
  82801 -2.09801518E-04
  82802 -1.57351139E-03
  82803 -2.09801518E-04
  82804 -4.19603036E-04
  82806 -1.04900759E-04
  82810 -1.97213427E-02
  82811 -2.13997548E-02
  82813 -2.09801518E-04
  82814 -2.09801518E-04
  82816 -6.29404554E-04
  83270 -0.00000000E+00
  83271 -0.00000000E+00
  83272 -0.00000000E+00
  83273 -0.00000000E+00
  83275 -0.00000000E+00
  83276 -2.09801518E-04
  83277 -1.04900759E-04
  83278 -4.19603036E-04
  83279 -2.09801518E-04
  83280 -1.04900759E-04
  83281 -1.04900759E-04
  83282 -0.00000000E+00
  83283 -0.00000000E+00
  83284 -0.00000000E+00
  83285 -2.09801518E-04
  83286 -1.04900759E-04
  83287 -2.09801518E-04
  83288 -5.24503795E-04
  83289 -0.00000000E+00
  83290 -0.00000000E+00
  83291 -0.00000000E+00
  83292 -0.00000000E+00
  83293 -0.00000000E+00
  83294 -0.00000000E+00
  83295 -0.00000000E+00
  83296 -0.00000000E+00
  83297 -0.00000000E+00
  83298 -1.04900759E-04
  83299 -0.00000000E+00
  83300 -0.00000000E+00
  83301 -0.00000000E+00
  83302 -0.00000000E+00
  83303 -0.00000000E+00
  83304 -0.00000000E+00
  83305 -0.00000000E+00
  83306 -0.00000000E+00
  83307 -0.00000000E+00
  83308 -0.00000000E+00
  83311 -0.00000000E+00
  83312 -0.00000000E+00
  83314 -0.00000000E+00
  83316 -0.00000000E+00
  83317 -0.00000000E+00
  83318 -0.00000000E+00
  83319 -0.00000000E+00
  83320 -0.00000000E+00
  83321 -0.00000000E+00
  83322 -0.00000000E+00
  83323 -0.00000000E+00
  83324 -0.00000000E+00
  83325 -1.04900759E-04
  83326 -1.04900759E-04
  83327 -0.00000000E+00
  83328 -0.00000000E+00
  83329 -1.04900759E-04
  83330 -3.14702277E-04
  83331 -0.00000000E+00
  83332 -0.00000000E+00
  83333 -0.00000000E+00
  83334 -0.00000000E+00
  83335 -0.00000000E+00
  83336 -0.00000000E+00
  83337 -0.00000000E+00
  83338 -0.00000000E+00
  83339 -0.00000000E+00
  83340 -0.00000000E+00
  83341 -1.04900759E-04
  83342 -1.04900759E-04
  83343 -0.00000000E+00
  83344 -0.00000000E+00
  83345 -0.00000000E+00
  83346 -0.00000000E+00
  83347 -0.00000000E+00
  83348 -0.00000000E+00
  83349 -0.00000000E+00
  83350 -0.00000000E+00
  83351 -0.00000000E+00
  83352 -0.00000000E+00
  83353 -0.00000000E+00
  83354 -0.00000000E+00
  83355 -0.00000000E+00
  83356 -0.00000000E+00
  83357 -0.00000000E+00
  83358 -0.00000000E+00
  83359 -0.00000000E+00
  83360 -0.00000000E+00
  83361 -0.00000000E+00
  83362 -0.00000000E+00
  83363 -0.00000000E+00
  83364 -0.00000000E+00
  83365 -0.00000000E+00
  83366 -0.00000000E+00
  83367 -0.00000000E+00
  83368 -0.00000000E+00
  83369 -0.00000000E+00
  83370 -0.00000000E+00
  83371 -0.00000000E+00
  83372 -0.00000000E+00
  83373 -0.00000000E+00
  83374 -0.00000000E+00
  83375 -0.00000000E+00
  83376 -4.19603036E-04
  83377 -0.00000000E+00
  83378 -0.00000000E+00
  83379 -0.00000000E+00
  83380 -0.00000000E+00
  83381 -0.00000000E+00
  83382 -4.19603036E-04
  83383 -0.00000000E+00
  83384 -0.00000000E+00
  83385 -0.00000000E+00
  83386 -0.00000000E+00
  83387 -0.00000000E+00
  83388 -0.00000000E+00
  83389 -0.00000000E+00
  83390 -0.00000000E+00
  83391 -0.00000000E+00
  83392 -0.00000000E+00
  83393 -0.00000000E+00
  83394 -4.19603036E-04
  83395 -1.04900759E-04
  83396 -5.24503795E-04
  83397 -0.00000000E+00
  83398 -0.00000000E+00
  83399 -0.00000000E+00
  83400 -0.00000000E+00
  83401 -1.04900759E-04
  83402 -5.24503795E-04
  83403 -1.04900759E-04
  83404 -4.19603036E-04
  83405 -4.19603036E-04
  83406 -1.04900759E-04
  83407 -5.24503795E-04
  83408 -1.04900759E-04
  83409 -1.04900759E-04
  83410 -1.04900759E-04
  83411 -0.00000000E+00
  83412 -0.00000000E+00
  83413 -5.24503795E-04
  83414 -1.04900759E-04
  83415 -4.19603036E-04
  83416 -1.04900759E-04
  83417 -0.00000000E+00
  83418 -0.00000000E+00
  83419 -0.00000000E+00
  83420 -0.00000000E+00
  83421 -3.14702277E-04
  83423 -0.00000000E+00
  83429 -0.00000000E+00
  83431 -0.00000000E+00
  83432 -0.00000000E+00
  83884 -2.09801518E-04
  83885 -0.00000000E+00
  83887 -0.00000000E+00
  83888 -0.00000000E+00
  83889 -0.00000000E+00
  83890 -0.00000000E+00
  83891 -0.00000000E+00
  83893 -0.00000000E+00
  83895 -0.00000000E+00
  83896 -0.00000000E+00
  83897 -0.00000000E+00
  83898 -0.00000000E+00
  83899 -0.00000000E+00
  83900 -0.00000000E+00
  83901 -0.00000000E+00
  83902 -0.00000000E+00
  83903 -0.00000000E+00
  83904 -0.00000000E+00
  83905 -0.00000000E+00
  83906 -0.00000000E+00
  83907 -0.00000000E+00
  83908 -0.00000000E+00
  83909 -0.00000000E+00
  83910 -0.00000000E+00
  83911 -0.00000000E+00
  83912 -0.00000000E+00
  83913 -0.00000000E+00
  83914 -0.00000000E+00
  83915 -0.00000000E+00
  83916 -0.00000000E+00
  83917 -0.00000000E+00
  83918 -0.00000000E+00
  83919 -0.00000000E+00
  83920 -0.00000000E+00
  83921 -0.00000000E+00
  83922 -0.00000000E+00
  83923 -0.00000000E+00
  83924 -0.00000000E+00
  83925 -0.00000000E+00
  83926 -0.00000000E+00
  83927 -0.00000000E+00
  83928 -0.00000000E+00
  83929 -0.00000000E+00
  83930 -0.00000000E+00
  83931 -0.00000000E+00
  83932 -0.00000000E+00
  83933 -0.00000000E+00
  83934 -0.00000000E+00
  83935 -0.00000000E+00
  83936 -0.00000000E+00
  83937 -0.00000000E+00
  83938 -0.00000000E+00
  83939 -0.00000000E+00
  83940 -0.00000000E+00
  83941 -0.00000000E+00
  83942 -0.00000000E+00
  83943 -0.00000000E+00
  83944 -0.00000000E+00
  83945 -0.00000000E+00
  83946 -0.00000000E+00
  83947 -0.00000000E+00
  83948 -0.00000000E+00
  83949 -0.00000000E+00
  83950 -0.00000000E+00
  83951 -0.00000000E+00
  83952 -0.00000000E+00
  83953 -0.00000000E+00
  83954 -0.00000000E+00
  83955 -0.00000000E+00
  83956 -0.00000000E+00
  83957 -0.00000000E+00
  83958 -0.00000000E+00
  83959 -0.00000000E+00
  83960 -0.00000000E+00
  83961 -0.00000000E+00
  83962 -0.00000000E+00
  83963 -0.00000000E+00
  83964 -0.00000000E+00
  83965 -0.00000000E+00
  83966 -0.00000000E+00
  83967 -0.00000000E+00
  83968 -0.00000000E+00
  83969 -0.00000000E+00
  83970 -0.00000000E+00
  83971 -0.00000000E+00
  83972 -0.00000000E+00
  83973 -0.00000000E+00
  83974 -0.00000000E+00
  83975 -0.00000000E+00
  83976 -0.00000000E+00
  83977 -0.00000000E+00
  83978 -0.00000000E+00
  83979 -0.00000000E+00
  83980 -0.00000000E+00
  83981 -0.00000000E+00
  83982 -0.00000000E+00
  83983 -0.00000000E+00
  83984 -0.00000000E+00
  83985 -0.00000000E+00
  83986 -0.00000000E+00
  83987 -0.00000000E+00
  83988 -0.00000000E+00
  83989 -0.00000000E+00
  83990 -0.00000000E+00
  83991 -0.00000000E+00
  83992 -0.00000000E+00
  83993 -0.00000000E+00
  83994 -0.00000000E+00
  83995 -0.00000000E+00
  83996 -1.04900759E-04
  83997 -0.00000000E+00
  83998 -1.04900759E-04
  83999 -1.04900759E-04
  84000 -3.14702277E-04
  84001 -4.19603036E-04
  84002 -3.14702277E-04
  84003 -0.00000000E+00
  84004 -1.04900759E-04
  84005 -0.00000000E+00
  84006 -1.04900759E-04
  84007 -4.19603036E-04
  84008 -3.14702277E-04
  84009 -4.19603036E-04
  84010 -1.99311442E-03
  84011 -3.14702277E-04
  84012 -1.04900759E-04
  84013 -3.14702277E-04
  84014 -0.00000000E+00
  84015 -0.00000000E+00
  84016 -0.00000000E+00
  84017 -0.00000000E+00
  84018 -0.00000000E+00
  84019 -3.14702277E-04
  84020 -0.00000000E+00
  84021 -1.99311442E-03
  84022 -1.04900759E-04
  84023 -0.00000000E+00
  84024 -0.00000000E+00
  84025 -0.00000000E+00
  84026 -0.00000000E+00
  84027 -0.00000000E+00
  84028 -0.00000000E+00
  84029 -0.00000000E+00
  84031 -0.00000000E+00
  84032 -0.00000000E+00
  84033 -0.00000000E+00
  84034 -0.00000000E+00
  84039 -0.00000000E+00
  84040 -0.00000000E+00
  84041 -0.00000000E+00
  84042 -0.00000000E+00
  84045 -0.00000000E+00
  84051 -0.00000000E+00
  84052 -0.00000000E+00
  84053 -0.00000000E+00
  84054 -0.00000000E+00
  84055 -0.00000000E+00
  84057 -0.00000000E+00
  84468 -0.00000000E+00
  84469 -0.00000000E+00
  84471 -0.00000000E+00
  84474 -0.00000000E+00
  84475 -0.00000000E+00
  84476 -0.00000000E+00
  84477 -0.00000000E+00
  84478 -0.00000000E+00
  84479 -9.44106831E-04
  84480 -0.00000000E+00
  84481 -9.44106831E-04
  84482 -0.00000000E+00
  84483 -0.00000000E+00
  84484 -0.00000000E+00
  84485 -0.00000000E+00
  84486 -0.00000000E+00
  84487 -0.00000000E+00
  84488 -0.00000000E+00
  84489 -0.00000000E+00
  84490 -0.00000000E+00
  84491 -0.00000000E+00
  84492 -0.00000000E+00
  84493 -0.00000000E+00
  84494 -0.00000000E+00
  84495 -0.00000000E+00
  84496 -0.00000000E+00
  84497 -0.00000000E+00
  84498 -0.00000000E+00
  84499 -0.00000000E+00
  84500 -0.00000000E+00
  84501 -0.00000000E+00
  84502 -0.00000000E+00
  84503 -0.00000000E+00
  84504 -0.00000000E+00
  84505 -0.00000000E+00
  84506 -0.00000000E+00
  84507 -0.00000000E+00
  84508 -0.00000000E+00
  84509 -0.00000000E+00
  84510 -0.00000000E+00
  84511 -0.00000000E+00
  84512 -0.00000000E+00
  84513 -0.00000000E+00
  84514 -0.00000000E+00
  84515 -0.00000000E+00
  84516 -0.00000000E+00
  84517 -0.00000000E+00
  84518 -0.00000000E+00
  84519 -0.00000000E+00
  84520 -0.00000000E+00
  84521 -0.00000000E+00
  84522 -0.00000000E+00
  84523 -0.00000000E+00
  84524 -0.00000000E+00
  84525 -0.00000000E+00
  84526 -0.00000000E+00
  84527 -0.00000000E+00
  84528 -0.00000000E+00
  84529 -0.00000000E+00
  84530 -1.04900759E-04
  84531 -0.00000000E+00
  84532 -0.00000000E+00
  84533 -0.00000000E+00
  84534 -0.00000000E+00
  84535 -0.00000000E+00
  84536 -0.00000000E+00
  84537 -1.46861063E-03
  84538 -0.00000000E+00
  84539 -0.00000000E+00
  84540 -0.00000000E+00
  84541 -0.00000000E+00
  84542 -0.00000000E+00
  84543 -0.00000000E+00
  84544 -0.00000000E+00
  84545 -0.00000000E+00
  84546 -0.00000000E+00
  84547 -0.00000000E+00
  84548 -0.00000000E+00
  84549 -0.00000000E+00
  84550 -0.00000000E+00
  84551 -0.00000000E+00
  84552 -0.00000000E+00
  84553 -0.00000000E+00
  84554 -0.00000000E+00
  84555 -0.00000000E+00
  84556 -0.00000000E+00
  84557 -0.00000000E+00
  84558 -0.00000000E+00
  84559 -0.00000000E+00
  84560 -0.00000000E+00
  84561 -0.00000000E+00
  84562 -0.00000000E+00
  84563 -0.00000000E+00
  84564 -1.67841214E-03
  84565 -9.44106831E-04
  84566 -0.00000000E+00
  84567 -0.00000000E+00
  84568 -0.00000000E+00
  84569 -0.00000000E+00
  84570 -0.00000000E+00
  84571 -1.04900759E-04
  84572 -0.00000000E+00
  84573 -1.04900759E-04
  84574 -4.72053416E-03
  84575 -1.15390835E-03
  84576 -4.72053416E-03
  84577 -1.15390835E-03
  84578 -0.00000000E+00
  84579 -2.09801518E-03
  84580 -1.36370987E-03
  84581 -2.09801518E-04
  84582 -4.02818915E-02
  84583 -5.24503795E-03
  84584 -1.43714040E-02
  84585 -5.24503795E-04
  84586 -1.15390835E-03
  84587 -2.09801518E-04
  84588 -1.15390835E-03
  84589 -2.09801518E-04
  84590 -0.00000000E+00
  84591 -0.00000000E+00
  84592 -0.00000000E+00
  84593 -0.00000000E+00
  84594 -5.24503795E-03
  84595 -3.14702277E-04
  84596 -5.24503795E-04
  84597 -4.19603036E-04
  84598 -0.00000000E+00
  84599 -0.00000000E+00
  84600 -7.34305313E-04
  84601 -0.00000000E+00
  84602 -0.00000000E+00
  84604 -0.00000000E+00
  84607 -0.00000000E+00
  84609 -0.00000000E+00
  84618 -0.00000000E+00
  84619 -0.00000000E+00
  84620 -0.00000000E+00
  84621 -0.00000000E+00
  84622 -0.00000000E+00
  84624 -0.00000000E+00
  84627 -0.00000000E+00
  84630 -0.00000000E+00
  85001 -0.00000000E+00
  85003 -0.00000000E+00
  85004 -0.00000000E+00
  85005 -0.00000000E+00
  85006 -0.00000000E+00
  85007 -0.00000000E+00
  85009 -0.00000000E+00
  85010 -0.00000000E+00
  85011 -0.00000000E+00
  85012 -0.00000000E+00
  85013 -0.00000000E+00
  85014 -0.00000000E+00
  85015 -0.00000000E+00
  85016 -0.00000000E+00
  85017 -0.00000000E+00
  85018 -0.00000000E+00
  85019 -0.00000000E+00
  85020 -0.00000000E+00
  85021 -0.00000000E+00
  85022 -0.00000000E+00
  85023 -0.00000000E+00
  85024 -0.00000000E+00
  85025 -0.00000000E+00
  85026 -0.00000000E+00
  85027 -0.00000000E+00
  85028 -0.00000000E+00
  85029 -0.00000000E+00
  85030 -0.00000000E+00
  85031 -0.00000000E+00
  85032 -0.00000000E+00
  85033 -0.00000000E+00
  85034 -0.00000000E+00
  85035 -0.00000000E+00
  85036 -0.00000000E+00
  85037 -0.00000000E+00
  85038 -0.00000000E+00
  85039 -0.00000000E+00
  85040 -0.00000000E+00
  85041 -0.00000000E+00
  85042 -0.00000000E+00
  85043 -0.00000000E+00
  85044 -0.00000000E+00
  85045 -0.00000000E+00
  85046 -0.00000000E+00
  85047 -0.00000000E+00
  85048 -0.00000000E+00
  85049 -0.00000000E+00
  85050 -3.35682429E-03
  85051 -0.00000000E+00
  85052 -3.35682429E-03
  85053 -0.00000000E+00
  85054 -0.00000000E+00
  85055 -0.00000000E+00
  85056 -0.00000000E+00
  85057 -0.00000000E+00
  85058 -0.00000000E+00
  85059 -0.00000000E+00
  85060 -0.00000000E+00
  85061 -0.00000000E+00
  85062 -0.00000000E+00
  85063 -0.00000000E+00
  85064 -0.00000000E+00
  85065 -0.00000000E+00
  85066 -0.00000000E+00
  85067 -0.00000000E+00
  85068 -0.00000000E+00
  85069 -0.00000000E+00
  85070 -0.00000000E+00
  85071 -0.00000000E+00
  85072 -1.04900759E-04
  85073 -0.00000000E+00
  85074 -3.56662581E-03
  85075 -0.00000000E+00
  85076 -0.00000000E+00
  85077 -0.00000000E+00
  85078 -0.00000000E+00
  85079 -0.00000000E+00
  85080 -0.00000000E+00
  85081 -0.00000000E+00
  85082 -3.14702277E-04
  85083 -0.00000000E+00
  85084 -3.14702277E-04
  85085 -3.14702277E-04
  85086 -0.00000000E+00
  85087 -0.00000000E+00
  85088 -0.00000000E+00
  85089 -1.04900759E-04
  85090 -1.04900759E-04
  85091 -1.04900759E-04
  85092 -2.09801518E-04
  85093 -4.19603036E-04
  85094 -2.41271746E-03
  85095 -4.19603036E-04
  85096 -2.41271746E-03
  85097 -2.09801518E-04
  85098 -4.61563340E-03
  85099 -2.09801518E-04
  85100 -4.61563340E-03
  85101 -2.09801518E-04
  85102 -3.14702277E-04
  85103 -3.14702277E-04
  85104 -1.04900759E-04
  85105 -1.04900759E-04
  85106 -2.09801518E-04
  85107 -0.00000000E+00
  85108 -1.04900759E-04
  85109 -4.61563340E-03
  85110 -3.14702277E-04
  85111 -4.61563340E-03
  85112 -3.14702277E-04
  85113 -2.09801518E-04
  85114 -1.04900759E-04
  85115 -2.09801518E-04
  85116 -1.04900759E-04
  85117 -2.09801518E-04
  85118 -2.09801518E-04
  85119 -1.04900759E-04
  85120 -1.04900759E-04
  85121 -5.24503795E-04
  85122 -2.09801518E-04
  85123 -1.04900759E-04
  85124 -2.09801518E-04
  85133 -3.14702277E-04
  85135 -3.14702277E-04
  85136 -0.00000000E+00
  85139 -0.00000000E+00
  85140 -0.00000000E+00
  85500 -0.00000000E+00
  85503 -0.00000000E+00
  85504 -0.00000000E+00
  85505 -0.00000000E+00
  85506 -0.00000000E+00
  85507 -0.00000000E+00
  85508 -0.00000000E+00
  85509 -0.00000000E+00
  85510 -0.00000000E+00