# File generated by Flopy version 3.9.1 on 02/09/2026 at 22:08:36.
BEGIN options
END options

BEGIN timing
  TDIS6  struc_caseB.tdis
END timing

BEGIN models
  gwf6  struc_caseB.nam  struc_caseB
END models

BEGIN exchanges
END exchanges

BEGIN solutiongroup  1
  ims6  struc_caseB.ims  struc_caseB
END solutiongroup  1

