# File generated by Flopy version 3.9.1 on 02/09/2026 at 22:08:41.
BEGIN options
  FIXED_CELL
  PRINT_FLOWS
  SAVE_FLOWS
END options

BEGIN dimensions
  MAXBOUND  89705
END dimensions

BEGIN period  1
  1 7 316 5.66163159E-09
  1 7 317 5.66346763E-09
  1 7 318 5.68011718E-09
  1 7 319 5.71104911E-09
  1 7 320 5.75532228E-09
  1 7 321 5.81165418E-09
  1 7 322 5.87850817E-09
  1 8 314 5.65861190E-09
  1 8 315 5.62940651E-09
  1 8 316 5.61558106E-09
  1 8 317 5.61755445E-09
  1 8 318 5.63523658E-09
  1 8 319 5.66803767E-09
  1 8 320 5.71491591E-09
  1 8 321 5.77445672E-09
  1 8 322 5.84497271E-09
  1 8 323 5.92461217E-09
  1 8 324 6.01146428E-09
  1 8 325 6.14106352E-09
  1 9 313 5.66680258E-09
  1 9 314 5.62071224E-09
  1 9 315 5.58987672E-09
  1 9 316 5.57528370E-09
  1 9 317 5.57739431E-09
  1 9 318 5.59610784E-09
  1 9 319 5.63077242E-09
  1 9 320 5.68023994E-09
  1 9 321 5.74295697E-09
  1 9 322 5.81707884E-09
  1 9 323 5.90059234E-09
  1 9 324 5.99143327E-09
  1 9 325 6.12336514E-09
  1 9 326 6.22913762E-09
  1 9 327 6.33679736E-09
  1 9 328 6.44477406E-09
  1 9 329 6.55174074E-09
  1 9 330 6.65661057E-09
  1 9 331 6.75852179E-09
  1 10 311 5.77637180E-09
  1 10 312 5.70100639E-09
  1 10 313 5.63813313E-09
  1 10 314 5.58969282E-09
  1 10 315 5.55725730E-09
  1 10 316 5.54190885E-09
  1 10 317 5.54415307E-09
  1 10 318 5.56387836E-09
  1 10 319 5.60036808E-09
  1 10 320 5.65236343E-09
  1 10 321 5.71816713E-09
  1 10 322 5.79577282E-09
  1 10 323 5.88300289E-09
  1 10 324 5.97763916E-09
  1 10 325 6.11205697E-09
  1 10 326 6.22151682E-09
  1 10 327 6.33260811E-09
  1 10 328 6.44370411E-09
  1 10 329 6.55344602E-09
  1 10 330 6.66073547E-09
  1 10 331 6.76471501E-09
  1 10 332 6.86474119E-09
  1 10 333 6.96035445E-09
  1 10 334 7.05124868E-09
  1 10 335 7.13724243E-09
  1 10 336 7.21825291E-09
  1 10 337 7.28145889E-09
  1 10 338 7.35238843E-09
  1 10 339 7.41849373E-09
  1 10 340 7.47989126E-09
  1 10 341 7.53671620E-09
  1 10 342 7.58911437E-09
  1 10 343 7.63723623E-09
  1 11 310 5.85090865E-09
  1 11 311 5.76173772E-09
  1 11 312 5.68313309E-09
  1 11 313 5.61743481E-09
  1 11 314 5.56674429E-09
  1 11 315 5.53277026E-09
  1 11 316 5.51669247E-09
  1 11 317 5.51906269E-09
  1 11 318 5.53975839E-09
  1 11 319 5.57799653E-09
  1 11 320 5.63240496E-09
  1 11 321 5.70113994E-09
  1 11 322 5.78203175E-09
  1 11 323 5.87273863E-09
  1 11 324 5.99842049E-09
  1 11 325 6.10788212E-09
  1 11 326 6.22065730E-09
  1 11 327 6.33478599E-09
  1 11 328 6.44859357E-09
  1 11 329 6.56069760E-09
  1 11 330 6.66999575E-09
  1 11 331 6.77564126E-09
  1 11 332 6.87701155E-09
  1 11 333 6.97367423E-09
  1 11 334 7.06535355E-09
  1 11 335 7.15189923E-09
  1 11 336 7.23325884E-09
  1 11 337 7.29684464E-09
  1 11 338 7.36779695E-09
  1 11 339 7.43379897E-09
  1 11 340 7.49498724E-09
  1 11 341 7.55151403E-09
  1 11 342 7.60353951E-09
  1 11 343 7.65122586E-09
  1 11 344 7.69473306E-09
  1 11 345 7.73421586E-09
  1 12 308 6.05480429E-09
  1 12 309 5.94862156E-09
  1 12 310 5.84810558E-09
  1 12 311 5.75576839E-09
  1 12 312 5.67419113E-09
  1 12 313 5.60587855E-09
  1 12 314 5.55309170E-09
  1 12 315 5.51767672E-09
  1 12 316 5.50091190E-09
  1 12 317 5.50339610E-09
  1 12 318 5.52499612E-09
  1 12 319 5.56486222E-09
  1 12 320 5.62150855E-09
  1 12 321 5.69294527E-09
  1 12 322 5.77684122E-09
  1 12 323 5.87069430E-09
  1 12 324 5.99902488E-09
  1 12 325 6.11156448E-09
  1 12 326 6.22718876E-09
  1 12 327 6.34387203E-09
  1 12 328 6.45990178E-09
  1 12 329 6.57388114E-09
  1 12 330 6.68471163E-09
  1 12 331 6.79156358E-09
  1 12 332 6.89384012E-09
  1 12 333 6.99113940E-09
  1 12 334 7.08321808E-09
  1 12 335 7.16995809E-09
  1 12 336 7.25133745E-09
  1 12 337 7.31498609E-09
  1 12 338 7.38568721E-09
  1 12 339 7.45133710E-09
  1 12 340 7.51209084E-09
  1 12 341 7.56811619E-09
  1 12 342 7.61958597E-09
  1 12 343 7.66667248E-09
  1 12 344 7.70954347E-09
  1 12 345 7.74835950E-09
  1 12 346 7.78327228E-09
  1 12 347 7.81442381E-09
  1 13 307 6.17848908E-09
  1 13 308 6.06659315E-09
  1 13 309 5.95780660E-09
  1 13 310 5.85455276E-09
  1 13 311 5.75946555E-09
  1 13 312 5.67527105E-09
  1 13 313 5.60463131E-09
  1 13 314 5.54996208E-09
  1 13 315 5.51324402E-09
  1 13 316 5.49585284E-09
  1 13 317 5.49843431E-09
  1 13 318 5.52084522E-09
  1 13 319 5.56217048E-09
  1 13 320 5.62081304E-09
  1 13 321 5.69464101E-09
  1 13 322 5.78116782E-09
  1 13 323 5.89885885E-09
  1 13 324 6.00870968E-09
  1 13 325 6.12378640E-09
  1 13 326 6.24169674E-09
  1 13 327 6.36036185E-09
  1 13 328 6.47804277E-09
  1 13 329 6.59333803E-09
  1 13 330 6.70516103E-09
  1 13 331 6.81270525E-09
  1 13 332 6.91540379E-09
  1 13 333 7.01288794E-09
  1 13 334 7.10494804E-09
  1 13 335 7.19149832E-09
  1 13 336 7.26048562E-09
  1 13 337 7.33592409E-09
  1 13 338 7.40608630E-09
  1 13 339 7.47112443E-09
  1 13 340 7.53121006E-09
  1 13 341 7.58652437E-09
  1 13 342 7.63725083E-09
  1 13 343 7.68356986E-09
  1 13 344 7.72565519E-09
  1 13 345 7.76367142E-09
  1 13 346 7.79777265E-09
  1 13 347 7.82810189E-09
  1 13 348 7.85479110E-09
  1 13 349 7.87796182E-09
  1 14 306 6.31525699E-09
  1 14 307 6.20094099E-09
  1 14 308 6.08730061E-09
  1 14 309 5.97651967E-09
  1 14 310 5.87109903E-09
  1 14 311 5.77377903E-09
  1 14 312 5.68741634E-09
  1 14 313 5.61481802E-09
  1 14 314 5.55854486E-09
  1 14 315 5.52070533E-09
  1 14 316 5.50276855E-09
  1 14 317 5.50542585E-09
  1 14 318 5.52852503E-09
  1 14 319 5.57108900E-09
  1 14 320 5.63141532E-09
  1 14 321 5.70723840E-09
  1 14 322 5.79592708E-09
  1 14 323 5.91624878E-09
  1 14 324 6.02819345E-09
  1 14 325 6.14516410E-09
  1 14 326 6.26470124E-09
  1 14 327 6.38468739E-09
  1 14 328 6.50336974E-09
  1 14 329 6.61935253E-09
  1 14 330 6.73156891E-09
  1 14 331 6.83924107E-09
  1 14 332 6.94183552E-09
  1 14 333 7.03901842E-09
  1 14 334 7.13061406E-09
  1 14 335 7.21656819E-09
  1 14 336 7.28501508E-09
  1 14 337 7.35967573E-09
  1 14 338 7.42900061E-09
  1 14 339 7.49315929E-09
  1 14 340 7.55233736E-09
  1 14 341 7.60672693E-09
  1 14 342 7.65651972E-09
  1 14 343 7.70190209E-09
  1 14 344 7.74305163E-09
  1 14 345 7.78013510E-09
  1 14 346 7.81330726E-09
  1 14 347 7.84271052E-09
  1 14 348 7.86847516E-09
  1 14 349 7.89072014E-09
  1 14 350 7.90955424E-09
  1 14 351 7.92507765E-09
  1 15 305 6.46075326E-09
  1 15 306 6.34717787E-09
  1 15 307 6.23214146E-09
  1 15 308 6.11748265E-09
  1 15 309 6.00541672E-09
  1 15 310 5.89850322E-09
  1 15 311 5.79956920E-09
  1 15 312 5.71158265E-09
  1 15 313 5.63747803E-09
  1 15 314 5.57994634E-09
  1 15 315 5.54121265E-09
  1 15 316 5.52283235E-09
  1 15 317 5.52553951E-09
  1 15 318 5.54917433E-09
  1 15 319 5.59270337E-09
  1 15 320 5.65432832E-09
  1 15 321 5.73166304E-09
  1 15 322 5.83906727E-09
  1 15 323 5.94477608E-09
  1 15 324 6.05809969E-09
  1 15 325 6.17622195E-09
  1 15 326 6.29663478E-09
  1 15 327 6.41719843E-09
  1 15 328 6.53615976E-09
  1 15 329 6.65213919E-09
  1 15 330 6.76409709E-09
  1 15 331 6.87128917E-09
  1 15 332 6.97321787E-09
  1 15 333 7.06958487E-09
  1 15 334 7.16024768E-09
  1 15 335 7.23363178E-09
  1 15 336 7.31269124E-09
  1 15 337 7.38623246E-09
  1 15 338 7.45441443E-09
  1 15 339 7.51742106E-09
  1 15 340 7.57544895E-09
  1 15 341 7.62869832E-09
  1 15 342 7.67736648E-09
  1 15 343 7.72164322E-09
  1 15 344 7.76170776E-09
  1 15 345 7.79772698E-09
  1 15 346 7.82985444E-09
  1 15 347 7.85823029E-09
  1 15 348 7.88298165E-09
  1 15 349 7.90422352E-09
  1 15 350 7.92206013E-09
  1 15 351 7.93658656E-09
  1 15 352 7.94789081E-09
  1 16 304 6.61063927E-09
  1 16 305 6.50061223E-09
  1 16 306 6.38740059E-09
  1 16 307 6.27244669E-09
  1 16 308 6.15758176E-09
  1 16 309 6.04503368E-09
  1 16 310 5.93739887E-09
  1 16 311 5.83756737E-09
  1 16 312 5.74859418E-09
  1 16 313 5.67351805E-09
  1 16 314 5.61513987E-09
  1 16 315 5.57578525E-09
  1 16 316 5.55708528E-09
  1 16 317 5.55981224E-09
  1 16 318 5.58380059E-09
  1 16 319 5.62796853E-09
  1 16 320 5.69043553E-09
  1 16 321 5.76871312E-09
  1 16 322 5.87856414E-09
  1 16 323 5.98503607E-09
  1 16 324 6.09892665E-09
  1 16 325 6.21736668E-09
  1 16 326 6.33782078E-09
  1 16 327 6.45814478E-09
  1 16 328 6.57659929E-09
  1 16 329 6.69183120E-09
  1 16 330 6.80283500E-09
  1 16 331 6.90890378E-09
  1 16 332 7.00957735E-09
  1 16 333 7.10459246E-09
  1 16 334 7.19383804E-09
  1 16 335 7.26589154E-09
  1 16 336 7.34348412E-09
  1 16 337 7.41555877E-09
  1 16 338 7.48228897E-09
  1 16 339 7.54386940E-09
  1 16 340 7.60050430E-09
  1 16 341 7.65239882E-09
  1 16 342 7.69975293E-09
  1 16 343 7.74275720E-09
  1 16 344 7.78159010E-09
  1 16 345 7.81641643E-09
  1 16 346 7.84738669E-09
  1 16 347 7.87463703E-09
  1 16 348 7.89828987E-09
  1 16 349 7.91845494E-09
  1 16 350 7.93523065E-09
  1 16 351 7.94870590E-09
  1 16 352 7.95896219E-09
  1 16 353 7.96607603E-09
  1 16 354 7.97012172E-09
  1 17 285 7.71227619E-09
  1 17 304 6.65672107E-09
  1 17 305 6.54810449E-09
  1 17 306 6.43609000E-09
  1 17 307 6.32208654E-09
  1 17 308 6.20790213E-09
  1 17 309 6.09575693E-09
  1 17 310 5.98825986E-09
  1 17 311 5.88833645E-09
  1 17 312 5.79909973E-09
  1 17 313 5.72366413E-09
  1 17 314 5.66491457E-09
  1 17 315 5.62525623E-09
  1 17 316 5.60638163E-09
  1 17 317 5.60909499E-09
  1 17 318 5.63322728E-09
  1 17 319 5.67765882E-09
  1 17 320 5.74044461E-09
  1 17 321 5.83501936E-09
  1 17 322 5.93107840E-09
  1 17 323 6.03745845E-09
  1 17 324 6.15101843E-09
  1 17 325 6.26886332E-09
  1 17 326 6.38845382E-09
  1 17 327 6.50766031E-09
  1 17 328 6.62477144E-09
  1 17 329 6.73847048E-09
  1 17 330 6.84779204E-09
  1 17 331 6.95206939E-09
  1 17 332 7.05088002E-09
  1 17 333 7.14399422E-09
  1 17 334 7.23132951E-09
  1 17 335 7.30159711E-09
  1 17 336 7.37733106E-09
  1 17 337 7.44759135E-09
  1 17 338 7.51256180E-09
  1 17 339 7.57244393E-09
  1 17 340 7.62744590E-09
  1 17 341 7.67777437E-09
  1 17 342 7.72362884E-09
  1 17 343 7.76519789E-09
  1 17 344 7.80265671E-09
  1 17 345 7.83616586E-09
  1 17 346 7.86587075E-09
  1 17 347 7.89190185E-09
  1 17 348 7.91437538E-09
  1 17 349 7.93339440E-09
  1 17 350 7.94905034E-09
  1 17 351 7.96142484E-09
  1 17 352 7.97059192E-09
  1 17 353 7.97662051E-09
  1 17 354 7.97957728E-09
  1 17 355 7.97952985E-09
  1 17 356 7.97655028E-09
  1 18 280 7.79168811E-09
  1 18 281 7.78654057E-09
  1 18 282 7.75991832E-09
  1 18 283 7.75097656E-09
  1 18 284 7.73978661E-09
  1 18 285 7.72612584E-09
  1 18 286 7.70976846E-09
  1 18 287 7.69048549E-09
  1 18 288 7.66804466E-09
  1 18 302 6.90802383E-09
  1 18 303 6.81144373E-09
  1 18 304 6.70961460E-09
  1 18 305 6.60322734E-09
  1 18 306 6.49328338E-09
  1 18 307 6.38114738E-09
  1 18 308 6.26858824E-09
  1 18 309 6.15779717E-09
  1 18 310 6.05136920E-09
  1 18 311 5.95223472E-09
  1 18 312 5.86353148E-09
  1 18 313 5.78841603E-09
  1 18 314 5.72982613E-09
  1 18 315 5.69022077E-09
  1 18 316 5.67133605E-09
  1 18 317 5.67400006E-09
  1 18 318 5.69804286E-09
  1 18 319 5.74231976E-09
  1 18 320 5.80484305E-09
  1 18 321 5.90161554E-09
  1 18 322 5.99691662E-09
  1 18 323 6.10227661E-09
  1 18 324 6.21453948E-09
  1 18 325 6.33081429E-09
  1 18 326 6.44858292E-09
  1 18 327 6.56574985E-09
  1 18 328 6.68064592E-09
  1 18 329 6.79200000E-09
  1 18 330 6.89889185E-09
  1 18 331 7.00069660E-09
  1 18 332 7.09702858E-09
  1 18 333 7.18768904E-09
  1 18 334 7.26161788E-09
  1 18 335 7.34064953E-09
  1 18 336 7.41413625E-09
  1 18 337 7.48223880E-09
  1 18 338 7.54514678E-09
  1 18 339 7.60306429E-09
  1 18 340 7.65619943E-09
  1 18 341 7.70475677E-09
  1 18 342 7.74893215E-09
  1 18 343 7.78890923E-09
  1 18 344 7.82485743E-09
  1 18 345 7.85693080E-09
  1 18 346 7.88526774E-09
  1 18 347 7.90999133E-09
  1 18 348 7.93121005E-09
  1 18 349 7.94901903E-09
  1 18 350 7.96350155E-09
  1 18 351 7.97473096E-09
  1 18 352 7.98277289E-09
  1 18 353 7.98768784E-09
  1 18 354 7.98953409E-09
  1 18 355 7.98837101E-09
  1 18 356 7.98426267E-09
  1 18 357 7.97728187E-09
  1 19 276 7.79966480E-09
  1 19 277 7.80085989E-09
  1 19 278 7.80112276E-09
  1 19 279 7.80025361E-09
  1 19 280 7.79804333E-09
  1 19 281 7.79427545E-09
  1 19 282 7.76944818E-09
  1 19 283 7.76196764E-09
  1 19 284 7.75229350E-09
  1 19 285 7.74020336E-09
  1 19 286 7.72547291E-09
  1 19 287 7.70787596E-09
  1 19 288 7.68718416E-09
  1 19 289 7.66316660E-09
  1 19 300 7.13115265E-09
  1 19 301 7.04918887E-09
  1 19 302 6.96137067E-09
  1 19 303 6.86790247E-09
  1 19 304 6.76918309E-09
  1 19 305 6.66585896E-09
  1 19 306 6.55888097E-09
  1 19 307 6.44955939E-09
  1 19 308 6.33960841E-09
  1 19 309 6.23116868E-09
  1 19 310 6.12679362E-09
  1 19 311 6.02938543E-09
  1 19 312 5.94206984E-09
  1 19 313 5.86800759E-09
  1 19 314 5.81015354E-09
  1 19 315 5.77099032E-09
  1 19 316 5.75227645E-09
  1 19 317 5.75485419E-09
  1 19 318 5.77855546E-09
  1 19 319 5.82222558E-09
  1 19 320 5.88385948E-09
  1 19 321 5.98251131E-09
  1 19 322 6.07614372E-09
  1 19 323 6.17950286E-09
  1 19 324 6.28945439E-09
  1 19 325 6.40314350E-09
  1 19 326 6.51809926E-09
  1 19 327 6.63227998E-09
  1 19 328 6.74407232E-09
  1 19 329 6.85225910E-09
  1 19 330 6.95596916E-09
  1 19 331 7.05462008E-09
  1 19 332 7.14786115E-09
  1 19 333 7.23552103E-09
  1 19 334 7.30663598E-09
  1 19 335 7.38291075E-09
  1 19 336 7.45377094E-09
  1 19 337 7.51938201E-09
  1 19 338 7.57993448E-09
  1 19 339 7.63563054E-09
  1 19 340 7.68667413E-09
  1 19 341 7.73326407E-09
  1 19 342 7.77558926E-09
  1 19 343 7.81382557E-09
  1 19 344 7.84813410E-09
  1 19 345 7.87866020E-09
  1 19 346 7.90553336E-09
  1 19 347 7.92886757E-09
  1 19 348 7.94876219E-09
  1 19 349 7.96530314E-09
  1 19 350 7.97856446E-09
  1 19 351 7.98861026E-09
  1 19 352 7.99549693E-09
  1 19 353 7.99927576E-09
  1 19 354 7.99999593E-09
  1 19 355 7.99770787E-09
  1 19 356 7.99246706E-09
  1 19 357 7.98433815E-09
  1 19 358 7.97339944E-09
  1 19 359 7.95974763E-09
  1 20 273 7.79039640E-09
  1 20 274 7.79418221E-09
  1 20 275 7.79765845E-09
  1 20 276 7.80066082E-09
  1 20 277 7.80300866E-09
  1 20 278 7.80450762E-09
  1 20 279 7.80495221E-09
  1 20 280 7.80412821E-09
  1 20 281 7.80181490E-09
  1 20 282 7.77886847E-09
  1 20 283 7.77293407E-09
  1 20 284 7.76486653E-09
  1 20 285 7.75444438E-09
  1 20 286 7.74144582E-09
  1 20 287 7.72564864E-09
  1 20 288 7.70682997E-09
  1 20 289 7.68476571E-09
  1 20 290 7.65922992E-09
  1 20 291 7.62999421E-09
  1 20 292 7.59682742E-09
  1 20 294 7.51776326E-09
  1 20 295 7.47139463E-09
  1 20 296 7.42015798E-09
  1 20 297 7.38315251E-09
  1 20 298 7.32179131E-09
  1 20 299 7.25485955E-09
  1 20 300 7.18222501E-09
  1 20 301 7.10382643E-09
  1 20 302 7.01970364E-09
  1 20 303 6.93003551E-09
  1 20 304 6.83518579E-09
  1 20 305 6.73575580E-09
  1 20 306 6.63264151E-09
  1 20 307 6.52708972E-09
  1 20 308 6.42074503E-09
  1 20 309 6.31567603E-09
  1 20 310 6.21436629E-09
  1 20 311 6.11965529E-09
  1 20 312 6.03461758E-09
  1 20 313 5.96237694E-09
  1 20 314 5.90586584E-09
  1 20 315 5.86755691E-09
  1 20 316 5.84920713E-09
  1 20 317 5.85166170E-09
  1 20 318 5.87475740E-09
  1 20 319 5.91734627E-09
  1 20 320 5.99904209E-09
  1 20 321 6.07754027E-09
  1 20 322 6.16856206E-09
  1 20 323 6.26891160E-09
  1 20 324 6.37551503E-09
  1 20 325 6.48558679E-09
  1 20 326 6.59672949E-09
  1 20 327 6.70697458E-09
  1 20 328 6.81477743E-09
  1 20 329 6.91898208E-09
  1 20 330 7.01876933E-09
  1 20 331 7.11359878E-09
  1 20 332 7.20315189E-09
  1 20 333 7.27663712E-09
  1 20 334 7.35510086E-09
  1 20 335 7.42820468E-09
  1 20 336 7.49607451E-09
  1 20 337 7.55887513E-09
  1 20 338 7.61679306E-09
  1 20 339 7.67002397E-09
  1 20 340 7.71876357E-09
  1 20 341 7.76320122E-09
  1 20 342 7.80351565E-09
  1 20 343 7.83987214E-09
  1 20 344 7.87242098E-09
  1 20 345 7.90129672E-09
  1 20 346 7.92661810E-09
  1 20 347 7.94848847E-09
  1 20 348 7.96699667E-09
  1 20 349 7.98221828E-09
  1 20 350 7.99421710E-09
  1 20 351 8.00304710E-09
  1 20 352 8.00875468E-09
  1 20 353 8.01138122E-09
  1 20 354 8.01096617E-09
  1 20 355 8.00755046E-09
  1 20 356 8.00118037E-09
  1 20 357 7.99191184E-09
  1 20 358 7.97981514E-09
  1 20 359 7.96497982E-09
  1 20 360 7.94751992E-09
  1 20 361 7.92757904E-09
  1 21 270 7.77391792E-09
  1 21 271 7.77839530E-09
  1 21 272 7.78305498E-09
  1 21 273 7.78779291E-09
  1 21 274 7.79248043E-09
  1 21 275 7.79696661E-09
  1 21 276 7.80108090E-09
  1 21 277 7.80463608E-09
  1 21 278 7.80743122E-09
  1 21 279 7.80925462E-09
  1 21 280 7.80988664E-09
  1 21 281 7.80910214E-09
  1 21 282 7.78812106E-09
  1 21 283 7.78381598E-09
  1 21 284 7.77744341E-09
  1 21 285 7.76878350E-09
  1 21 286 7.75761786E-09
  1 21 287 7.74372947E-09
  1 21 288 7.72690237E-09
  1 21 289 7.70692103E-09
  1 21 290 7.68356958E-09
  1 21 291 7.65663102E-09
  1 21 292 7.62588665E-09
  1 21 293 7.59111581E-09
  1 21 294 7.55209641E-09
  1 21 295 7.50860640E-09
  1 21 296 7.46042675E-09
  1 21 297 7.42676241E-09
  1 21 298 7.36886770E-09
  1 21 299 7.30561167E-09
  1 21 300 7.23686422E-09
  1 21 301 7.16256007E-09
  1 21 302 7.08272735E-09
  1 21 303 6.99752375E-09
  1 21 304 6.90728066E-09
  1 21 305 6.81255458E-09
  1 21 306 6.71418331E-09
  1 21 307 6.61334218E-09
  1 21 308 6.51159232E-09
  1 21 309 6.41090953E-09
  1 21 310 6.31367950E-09
  1 21 311 6.22264405E-09
  1 21 312 6.14078614E-09
  1 21 313 6.07114955E-09
  1 21 314 6.01660249E-09
  1 21 315 5.97957143E-09
  1 21 316 5.96178589E-09
  1 21 317 5.96408165E-09
  1 21 318 5.98630338E-09
  1 21 319 6.02732770E-09
  1 21 320 6.11074337E-09
  1 21 321 6.18623726E-09
  1 21 322 6.27370159E-09
  1 21 323 6.37003253E-09
  1 21 324 6.47225631E-09
  1 21 325 6.57768990E-09
  1 21 326 6.68403534E-09
  1 21 327 6.78941573E-09
  1 21 328 6.89236694E-09
  1 21 329 6.99180045E-09
  1 21 330 7.08695090E-09
  1 21 331 7.17731856E-09
  1 21 332 7.26261361E-09
  1 21 333 7.33210704E-09
  1 21 334 7.40677750E-09
  1 21 335 7.47631921E-09
  1 21 336 7.54085620E-09
  1 21 337 7.60054717E-09
  1 21 338 7.65556967E-09
  1 21 339 7.70610834E-09
  1 21 340 7.75234663E-09
  1 21 341 7.79446089E-09
  1 21 342 7.83261655E-09
  1 21 343 7.86696561E-09
  1 21 344 7.89764523E-09
  1 21 345 7.92477713E-09
  1 21 346 7.94846758E-09
  1 21 347 7.96880786E-09
  1 21 348 7.98587506E-09
  1 21 349 7.99973332E-09
  1 21 350 8.01043532E-09
  1 21 351 8.01802414E-09
  1 21 352 8.02253548E-09
  1 21 353 8.02400023E-09
  1 21 354 8.02244759E-09
  1 21 355 8.01790846E-09
  1 21 356 8.01041946E-09
  1 21 357 8.00002732E-09
  1 21 358 7.98679377E-09
  1 21 359 7.97080072E-09
  1 21 360 7.95215573E-09
  1 21 361 7.93099748E-09
  1 21 362 7.90750095E-09
  1 21 363 7.88188215E-09
  1 22 267 7.75590162E-09
  1 22 268 7.75964647E-09
  1 22 269 7.76385010E-09
  1 22 270 7.76849417E-09
  1 22 271 7.77352963E-09
  1 22 272 7.77887753E-09
  1 22 273 7.78443050E-09
  1 22 274 7.79005495E-09
  1 22 275 7.79559375E-09
  1 22 276 7.80086939E-09
  1 22 277 7.80568727E-09
  1 22 278 7.80983919E-09
  1 22 279 7.81310668E-09
  1 22 280 7.81526419E-09
  1 22 281 7.81608192E-09
  1 22 282 7.81532830E-09
  1 22 283 7.79455438E-09
  1 22 284 7.78996238E-09
  1 22 285 7.78315536E-09
  1 22 286 7.77391918E-09
  1 22 287 7.76204311E-09
  1 22 288 7.74731949E-09
  1 22 289 7.72954299E-09
  1 22 290 7.70850977E-09
  1 22 291 7.68401645E-09
  1 22 292 7.65585940E-09
  1 22 293 7.62383414E-09
  1 22 294 7.58773554E-09
  1 22 295 7.54735881E-09
  1 22 296 7.50250193E-09
  1 22 297 7.47247853E-09
  1 22 298 7.41839138E-09
  1 22 299 7.35919825E-09
  1 22 300 7.29477684E-09
  1 22 301 7.22506365E-09
  1 22 302 7.15008055E-09
  1 22 303 7.06996874E-09
  1 22 304 6.98503063E-09
  1 22 305 6.89577892E-09
  1 22 306 6.80299096E-09
  1 22 307 6.70776377E-09
  1 22 308 6.61156240E-09
  1 22 309 6.51625038E-09
  1 22 310 6.42408851E-09
  1 22 311 6.33768663E-09
  1 22 312 6.25989590E-09
  1 22 313 6.19363658E-09
  1 22 314 6.14166986E-09
  1 22 315 6.10633877E-09
  1 22 316 6.08931831E-09
  1 22 317 6.09142193E-09
  1 22 318 6.11250506E-09
  1 22 319 6.17871174E-09
  1 22 320 6.23617365E-09
  1 22 321 6.30783971E-09
  1 22 322 6.39082284E-09
  1 22 323 6.48215494E-09
  1 22 324 6.57900151E-09
  1 22 325 6.67881447E-09
  1 22 326 6.77942001E-09
  1 22 327 6.87905011E-09
  1 22 328 6.97633170E-09
  1 22 329 7.07024884E-09
  1 22 330 7.16009099E-09
  1 22 331 7.24539709E-09
  1 22 332 7.32590211E-09
  1 22 333 7.39092719E-09
  1 22 334 7.46139114E-09
  1 22 335 7.52700913E-09
  1 22 336 7.58789764E-09
  1 22 337 7.64420410E-09
  1 22 338 7.69609224E-09
  1 22 339 7.74373137E-09
  1 22 340 7.78728881E-09
  1 22 341 7.82692457E-09
  1 22 342 7.86278786E-09
  1 22 343 7.89501485E-09
  1 22 344 7.92372744E-09
  1 22 345 7.94903269E-09
  1 22 346 7.97102285E-09
  1 22 347 7.98977578E-09
  1 22 348 8.00535573E-09
  1 22 349 8.01781450E-09
  1 22 350 8.02719283E-09
  1 22 351 8.03352226E-09
  1 22 352 8.03682721E-09
  1 22 353 8.03712765E-09
  1 22 354 8.03444204E-09
  1 22 355 8.02879086E-09
  1 22 356 8.02020068E-09
  1 22 357 8.00870864E-09
  1 22 358 7.99436751E-09
  1 22 359 7.97725110E-09
  1 22 360 7.95746001E-09
  1 22 361 7.93512739E-09
  1 22 362 7.91042458E-09
  1 22 363 7.88356614E-09
  1 22 364 7.85481390E-09
  1 22 365 7.82447963E-09
  1 23 261 7.73476543E-09
  1 23 262 7.73651652E-09
  1 23 263 7.73831523E-09
  1 23 264 7.74031683E-09
  1 23 265 7.74265547E-09
  1 23 266 7.74544048E-09
  1 23 267 7.74875315E-09
  1 23 268 7.75264413E-09
  1 23 269 7.75713167E-09
  1 23 270 7.76220070E-09
  1 23 271 7.76780286E-09
  1 23 272 7.77385743E-09
  1 23 273 7.78025313E-09
  1 23 274 7.78685066E-09
  1 23 275 7.79348585E-09
  1 23 276 7.79997328E-09
  1 23 277 7.80611011E-09
  1 23 278 7.81168002E-09
  1 23 279 7.81645706E-09
  1 23 280 7.82020923E-09
  1 23 281 7.82270168E-09
  1 23 282 7.82369952E-09
  1 23 283 7.80509237E-09
  1 23 284 7.80236339E-09
  1 23 285 7.79749584E-09
  1 23 286 7.79028059E-09
  1 23 287 7.78051422E-09
  1 23 288 7.76799864E-09
  1 23 289 7.75254025E-09
  1 23 290 7.73394900E-09
  1 23 291 7.71203730E-09
  1 23 292 7.68661893E-09
  1 23 293 7.65750840E-09
  1 23 294 7.62452064E-09
  1 23 295 7.58747165E-09
  1 23 296 7.54618038E-09
  1 23 297 7.52006918E-09
  1 23 298 7.47010077E-09
  1 23 299 7.41532415E-09
  1 23 300 7.35563032E-09
  1 23 301 7.29096313E-09
  1 23 302 7.22134363E-09
  1 23 303 7.14690139E-09
  1 23 304 7.06791344E-09
  1 23 305 6.98485029E-09
  1 23 306 6.89842740E-09
  1 23 307 6.80965784E-09
  1 23 308 6.71989935E-09
  1 23 309 6.63088539E-09
  1 23 310 6.54472660E-09
  1 23 311 6.46386831E-09
  1 23 312 6.39099109E-09
  1 23 313 6.32884932E-09
  1 23 314 6.28005508E-09
  1 23 315 6.24683099E-09
  1 23 316 6.23077056E-09
  1 23 317 6.23265175E-09
  1 23 318 6.25234355E-09
  1 23 319 6.32048012E-09
  1 23 320 6.37424632E-09
  1 23 321 6.44130386E-09
  1 23 322 6.51893290E-09
  1 23 323 6.60434330E-09
  1 23 324 6.69487724E-09
  1 23 325 6.78815207E-09
  1 23 326 6.88214110E-09
  1 23 327 6.97520073E-09
  1 23 328 7.06605822E-09
  1 23 329 7.15377431E-09
  1 23 330 7.23769347E-09
  1 23 331 7.31739094E-09
  1 23 332 7.38229070E-09
  1 23 333 7.45274804E-09
  1 23 334 7.51863168E-09
  1 23 335 7.57999981E-09
  1 23 336 7.63695603E-09
  1 23 337 7.68963152E-09
  1 23 338 7.73817171E-09
  1 23 339 7.78272656E-09
  1 23 340 7.82344373E-09
  1 23 341 7.86046379E-09
  1 23 342 7.89391709E-09
  1 23 343 7.92392170E-09
  1 23 344 7.95058231E-09
  1 23 345 7.97398970E-09
  1 23 346 7.99422073E-09
  1 23 347 8.01133869E-09
  1 23 348 8.02539405E-09
  1 23 349 8.03642546E-09
  1 23 350 8.04446110E-09
  1 23 351 8.04952040E-09
  1 23 352 8.05161613E-09
  1 23 353 8.05075687E-09
  1 23 354 8.04695006E-09
  1 23 355 8.04020548E-09
  1 23 356 8.03053935E-09
  1 23 357 8.01797893E-09
  1 23 358 8.00256769E-09
  1 23 359 7.98437099E-09
  1 23 360 7.96348202E-09
  1 23 361 7.94002793E-09
  1 23 362 7.91417580E-09
  1 23 363 7.88613805E-09
  1 23 364 7.85617692E-09
  1 23 365 7.82460743E-09
  1 23 366 7.79258638E-09
  1 23 367 7.75911591E-09
  1 23 368 7.72524609E-09
  1 24 257 7.72158279E-09
  1 24 258 7.72412235E-09
  1 24 259 7.72595925E-09
  1 24 260 7.72730511E-09
  1 24 261 7.72858073E-09
  1 24 262 7.72978619E-09
  1 24 263 7.73111241E-09
  1 24 264 7.73273230E-09
  1 24 265 7.73479622E-09
  1 24 266 7.73742777E-09
  1 24 267 7.74072011E-09
  1 24 268 7.74473315E-09
  1 24 269 7.74949145E-09
  1 24 270 7.75498332E-09
  1 24 271 7.76116087E-09
  1 24 272 7.76794113E-09
  1 24 273 7.77520818E-09
  1 24 274 7.78281612E-09
  1 24 275 7.79059272E-09
  1 24 276 7.79834360E-09
  1 24 277 7.80585662E-09
  1 24 278 7.81290639E-09
  1 24 279 7.81925863E-09
  1 24 280 7.82467422E-09
  1 24 281 7.82891282E-09
  1 24 282 7.83173594E-09
  1 24 283 7.81537633E-09
  1 24 284 7.81458932E-09
  1 24 285 7.81174332E-09
  1 24 286 7.80663490E-09
  1 24 287 7.79906884E-09
  1 24 288 7.78885776E-09
  1 24 289 7.77582120E-09
  1 24 290 7.75978455E-09
  1 24 291 7.74057786E-09
  1 24 292 7.71803459E-09
  1 24 293 7.69199067E-09
  1 24 294 7.66228397E-09
  1 24 295 7.62875450E-09
  1 24 296 7.61050768E-09
  1 24 297 7.56928601E-09
  1 24 298 7.52371333E-09
  1 24 299 7.47366809E-09
  1 24 300 7.41905968E-09
  1 24 301 7.35984455E-09
  1 24 302 7.29604807E-09
  1 24 303 7.22779289E-09
  1 24 304 7.15533432E-09
  1 24 305 7.07910266E-09
  1 24 306 6.99975072E-09
  1 24 307 6.91820303E-09
  1 24 308 6.83570042E-09
  1 24 309 6.75383040E-09
  1 24 310 6.67453067E-09
  1 24 311 6.60005208E-09
  1 24 312 6.53286863E-09
  1 24 313 6.47552910E-09
  1 24 314 6.43045667E-09
  1 24 315 6.39971833E-09
  1 24 316 6.38480026E-09
  1 24 317 6.38643227E-09
  1 24 318 6.43912163E-09
  1 24 319 6.47412139E-09
  1 24 320 6.52360047E-09
  1 24 321 6.58533531E-09
  1 24 322 6.65681400E-09
  1 24 323 6.73546353E-09
  1 24 324 6.81883717E-09
  1 24 325 6.90474551E-09
  1 24 326 6.99132943E-09
  1 24 327 7.07708349E-09
  1 24 328 7.16084302E-09
  1 24 329 7.24174860E-09
  1 24 330 7.31919946E-09
  1 24 331 7.39280444E-09
  1 24 332 7.45202115E-09
  1 24 333 7.51718386E-09
  1 24 334 7.57815893E-09
  1 24 335 7.63499160E-09
  1 24 336 7.68776771E-09
  1 24 337 7.73659766E-09
  1 24 338 7.78160451E-09
  1 24 339 7.82291526E-09
  1 24 340 7.86065478E-09
  1 24 341 7.89494147E-09
  1 24 342 7.92588449E-09
  1 24 343 7.95358182E-09
  1 24 344 7.97811929E-09
  1 24 345 7.99956999E-09
  1 24 346 8.01799421E-09
  1 24 347 8.03343975E-09
  1 24 348 8.04594249E-09
  1 24 349 8.05552732E-09
  1 24 350 8.06220934E-09
  1 24 351 8.06599551E-09
  1 24 352 8.06688656E-09
  1 24 353 8.06487950E-09
  1 24 354 8.05997051E-09
  1 24 355 8.05215850E-09
  1 24 356 8.04144915E-09
  1 24 357 8.02785964E-09
  1 24 358 8.01142395E-09
  1 24 359 7.99219870E-09
  1 24 360 7.97026931E-09
  1 24 361 7.94575649E-09
  1 24 362 7.91882249E-09
  1 24 363 7.88967696E-09
  1 24 364 7.85858173E-09
  1 24 365 7.82585418E-09
  1 24 366 7.79277278E-09
  1 24 367 7.75810146E-09
  1 24 368 7.72303076E-09
  1 24 369 7.68808311E-09
  1 24 370 7.65381322E-09
  1 25 253 7.47795574E-09
  1 25 254 7.70573627E-09
  1 25 255 7.71105525E-09
  1 25 256 7.71497581E-09
  1 25 257 7.71772192E-09
  1 25 258 7.71952571E-09
  1 25 259 7.72062413E-09
  1 25 260 7.72122428E-09
  1 25 261 7.72181924E-09
  1 25 262 7.72240210E-09
  1 25 263 7.72318402E-09
  1 25 264 7.72435716E-09
  1 25 265 7.72608951E-09
  1 25 266 7.72852019E-09
  1 25 267 7.73175531E-09
  1 25 268 7.73586473E-09
  1 25 269 7.74087974E-09
  1 25 270 7.74679210E-09
  1 25 271 7.75355408E-09
  1 25 272 7.76107987E-09
  1 25 273 7.76924806E-09
  1 25 274 7.77790512E-09
  1 25 275 7.78686959E-09
  1 25 276 7.79593690E-09
  1 25 277 7.80488442E-09
  1 25 278 7.81347658E-09
  1 25 279 7.82146982E-09
  1 25 280 7.82861711E-09
  1 25 281 7.83467203E-09
  1 25 282 7.83939219E-09
  1 25 283 7.82535727E-09
  1 25 284 7.82658731E-09
  1 25 285 7.82584002E-09
  1 25 286 7.82291823E-09
  1 25 287 7.81763575E-09
  1 25 288 7.80981690E-09
  1 25 289 7.79929558E-09
  1 25 290 7.78591412E-09
  1 25 291 7.76952187E-09
  1 25 292 7.74997390E-09
  1 25 293 7.72712979E-09
  1 25 294 7.70085284E-09
  1 25 295 7.67100991E-09
  1 25 296 7.65679715E-09
  1 25 297 7.61986858E-09
  1 25 298 7.57893092E-09
  1 25 299 7.53388899E-09
  1 25 300 7.48467507E-09
  1 25 301 7.43126293E-09
  1 25 302 7.37368696E-09
  1 25 303 7.31206719E-09
  1 25 304 7.24664081E-09
  1 25 305 7.17779993E-09
  1 25 306 7.10613448E-09
  1 25 307 7.03247688E-09
  1 25 308 6.95794302E-09
  1 25 309 6.88396085E-09
  1 25 310 6.81227521E-09
  1 25 311 6.74491605E-09
  1 25 312 6.68411866E-09
  1 25 313 6.63219047E-09
  1 25 314 6.59132970E-09
  1 25 315 6.56341565E-09
  1 25 316 6.54980345E-09
  1 25 317 6.55116307E-09
  1 25 318 6.60642558E-09
  1 25 319 6.63797550E-09
  1 25 320 6.68264687E-09
  1 25 321 6.73843168E-09
  1 25 322 6.80306240E-09
  1 25 323 6.87421803E-09
  1 25 324 6.94969328E-09
  1 25 325 7.02751614E-09
  1 25 326 7.10601278E-09
  1 25 327 7.18382744E-09
  1 25 328 7.25990990E-09
  1 25 329 7.33348285E-09
  1 25 330 7.40399963E-09
  1 25 331 7.47110008E-09
  1 25 332 7.52427091E-09
  1 25 333 7.58381980E-09
  1 25 334 7.63960852E-09
  1 25 335 7.69166476E-09
  1 25 336 7.74005226E-09
  1 25 337 7.78485672E-09
  1 25 338 7.82617528E-09
  1 25 339 7.86410892E-09
  1 25 340 7.89875698E-09
  1 25 341 7.93021342E-09
  1 25 342 7.95856423E-09
  1 25 343 7.98388567E-09
  1 25 344 8.00624331E-09
  1 25 345 8.02569142E-09
  1 25 346 8.04227281E-09
  1 25 347 8.05601901E-09
  1 25 348 8.06695074E-09
  1 25 349 8.07507865E-09
  1 25 350 8.08040443E-09
  1 25 351 8.08292227E-09
  1 25 352 8.08262072E-09
  1 25 353 8.07948505E-09
  1 25 354 8.07350014E-09
  1 25 355 8.06465391E-09
  1 25 356 8.05294146E-09
  1 25 357 8.03836984E-09
  1 25 358 8.02096338E-09
  1 25 359 8.00076978E-09
  1 25 360 7.97786645E-09
  1 25 361 7.95236728E-09
  1 25 362 7.92442919E-09
  1 25 363 7.89425840E-09
  1 25 364 7.86211553E-09
  1 25 365 7.82916095E-09
  1 25 366 7.79427033E-09
  1 25 367 7.75849073E-09
  1 25 368 7.72231105E-09