# File generated by Flopy version 3.9.1 on 02/09/2026 at 22:08:36.
BEGIN options
END options

BEGIN packages
  DIS6  struc_caseB.dis  dis
  IC6  struc_caseB.ic  ic
  CHD6  struc_caseB.chd  chd
  NPF6  struc_caseB.npf  npf
  WEL6  struc_caseB.wel  well_package
  RCH6  struc_caseB.rch  rch
  EVT6  struc_caseB.evt  evt
  OC6  struc_caseB.oc  oc
END packages

