# File generated by Flopy version 3.9.1 on 02/12/2026 at 00:35:33.
BEGIN options
END options

BEGIN timing
  TDIS6  struc_caseD.tdis
END timing

BEGIN models
  gwf6  struc_caseD.nam  struc_caseD
END models

BEGIN exchanges
END exchanges

BEGIN solutiongroup  1
  ims6  struc_caseD.ims  struc_caseD
END solutiongroup  1

