# File generated by Flopy version 3.9.1 on 02/12/2026 at 00:35:40.
BEGIN options
  BUDGET  FILEOUT  struc_caseD.cbc
  HEAD  FILEOUT  struc_caseD.hds
END options

BEGIN period  1
  SAVE  HEAD  LAST
  SAVE  BUDGET  LAST
  PRINT  BUDGET  LAST
END period  1

