# File generated by Flopy version 3.9.1 on 02/12/2026 at 00:35:33.
BEGIN options
END options

BEGIN packages
  DIS6  struc_caseD.dis  dis
  IC6  struc_caseD.ic  ic
  CHD6  struc_caseD.chd  chd
  NPF6  struc_caseD.npf  npf
  WEL6  struc_caseD.wel  well_package
  RCH6  struc_caseD.rch  rch
  EVT6  struc_caseD.evt  evt
  OC6  struc_caseD.oc  oc
END packages

