# File generated by Flopy version 3.9.1 on 02/11/2026 at 07:44:24.
BEGIN options
  BUDGET  FILEOUT  quadtree_caseA.cbc
  HEAD  FILEOUT  quadtree_caseA.hds
END options

BEGIN period  1
  SAVE  HEAD  LAST
  SAVE  BUDGET  LAST
  PRINT  BUDGET  LAST
END period  1

