# File generated by Flopy version 3.9.1 on 02/11/2026 at 07:44:24.
BEGIN options
  FIXED_CELL
  PRINT_FLOWS
  SAVE_FLOWS
END options

BEGIN dimensions
  MAXBOUND  18550
END dimensions

BEGIN period  1
  1 5.72286012E-09
  2 5.70657648E-09
  3 5.61904526E-09
  4 5.71278805E-09
  5 5.77083242E-09
  6 5.60767031E-09
  7 5.67395049E-09
  8 5.88879616E-09
  9 5.80760320E-09
  10 5.99023729E-09
  11 6.24427134E-09
  12 6.47820072E-09
  13 6.70711147E-09
  14 6.92120586E-09
  15 7.11508834E-09
  16 7.28649352E-09
  17 7.42161563E-09
  18 7.54807369E-09
  19 6.27985854E-09
  20 6.02381151E-09
  21 5.81060648E-09
  22 6.03200029E-09
  23 5.80340884E-09
  24 5.64318126E-09
  25 5.54531307E-09
  26 5.62183418E-09
  27 5.51486162E-09
  28 5.53264859E-09
  29 5.60700598E-09
  30 5.50101656E-09
  31 5.58246734E-09
  32 5.75578231E-09
  33 5.95684084E-09
  34 5.74423871E-09
  35 5.98643864E-09
  36 6.22643819E-09
  37 6.47640709E-09
  38 6.24339614E-09
  39 6.50452044E-09
  40 6.71761575E-09
  41 6.94026458E-09
  42 6.75316061E-09
  43 6.97986472E-09
  44 7.13948973E-09
  45 7.30098399E-09
  46 7.18049259E-09
  47 7.34191080E-09
  48 7.45027418E-09
  49 7.57633193E-09
  50 7.48942748E-09
  51 7.61290044E-09
  52 7.68080581E-09
  53 7.76537853E-09
  54 7.71428360E-09
  55 7.79543612E-09
  56 7.85798983E-09
  57 7.90332455E-09
  58 7.78920419E-09
  59 7.75528931E-09
  60 7.73169135E-09
  61 7.69587099E-09
  62 7.64532555E-09
  63 7.09781128E-09
  64 6.90439018E-09
  65 6.58750091E-09
  66 6.33882159E-09
  67 6.68270528E-09
  68 6.43875117E-09
  69 6.08406899E-09
  70 5.84607119E-09
  71 6.18588314E-09
  72 5.94686176E-09
  73 5.65488747E-09
  74 5.54133997E-09
  75 5.75282999E-09
  76 5.63666636E-09
  77 5.52656012E-09
  78 5.61306577E-09
  79 5.62136843E-09
  80 5.70975123E-09
  81 5.78375752E-09
  82 6.03687101E-09
  83 5.90239067E-09
  84 6.14153924E-09
  85 6.30133129E-09
  86 6.56670858E-09
  87 6.40445283E-09
  88 6.66543367E-09
  89 6.81637599E-09
  90 7.04155294E-09
  91 6.90850492E-09
  92 7.12579819E-09
  93 7.23892655E-09
  94 7.39642700E-09
  95 7.30352513E-09
  96 7.46432293E-09
  97 7.53918982E-09
  98 7.65774703E-09
  99 7.59924936E-09
  100 7.71053829E-09
  101 7.75423606E-09
  102 7.83058601E-09
  103 7.80035445E-09
  104 7.87057073E-09
  105 7.88841851E-09
  106 7.92904757E-09
  107 7.92269997E-09
  108 7.95791379E-09
  109 7.95354090E-09
  110 7.96282577E-09
  111 7.97711616E-09
  112 7.98105997E-09
  113 7.97050424E-09
  114 7.94640961E-09
  115 7.74392125E-09
  116 7.75534213E-09
  117 7.78276567E-09
  118 7.76323087E-09
  119 7.77307421E-09
  120 7.79068907E-09
  121 7.79762260E-09
  122 7.78436999E-09
  123 7.79593374E-09
  124 7.80194449E-09
  125 7.80163919E-09
  126 7.80600773E-09
  127 7.81241882E-09
  128 7.79442199E-09
  129 7.75884874E-09
  130 7.81274807E-09
  131 7.78613700E-09
  132 7.73079364E-09
  133 7.68864385E-09
  134 7.76693702E-09
  135 7.73448306E-09
  136 7.62989756E-09
  137 7.55198774E-09
  138 7.68646729E-09
  139 7.62059372E-09
  140 7.45227963E-09
  141 7.34746696E-09
  142 7.53454635E-09
  143 7.44555153E-09
  144 7.19696750E-09
  145 7.01778066E-09
  146 7.31295328E-09
  147 7.15394993E-09
  148 6.81066030E-09
  149 6.58066422E-09
  150 6.96898971E-09
  151 6.76226432E-09
  152 6.33994296E-09
  153 6.11014087E-09
  154 6.54437111E-09
  155 6.33480693E-09
  156 5.92187681E-09
  157 5.80831869E-09
  158 6.16187285E-09
  159 6.05686960E-09
  160 5.79309671E-09
  161 5.87920478E-09
  162 6.04245205E-09
  163 6.14803568E-09
  164 6.07315922E-09
  165 6.30316565E-09
  166 6.30973704E-09
  167 6.51956516E-09
  168 6.55391806E-09
  169 6.80077568E-09
  170 6.74711565E-09
  171 6.97004666E-09
  172 7.02900416E-09
  173 7.23176890E-09
  174 7.17536118E-09
  175 7.34674397E-09
  176 7.39614566E-09
  177 7.54473831E-09
  178 7.50340311E-09
  179 7.63616861E-09
  180 7.66884201E-09
  181 7.77063009E-09
  182 7.74676606E-09
  183 7.83708283E-09
  184 7.85211997E-09
  185 7.91499476E-09
  186 7.90881639E-09
  187 7.96333332E-09
  188 7.96055883E-09
  189 7.98976740E-09
  190 8.00163861E-09
  191 8.02440657E-09
  192 8.00330467E-09
  193 8.00170440E-09
  194 8.03205514E-09
  195 8.02486356E-09
  196 7.98551553E-09
  197 7.95551492E-09
  198 8.00314066E-09
  199 7.96745017E-09
  200 7.91295823E-09
  201 7.91888719E-09
  202 7.85937457E-09
  203 7.79190999E-09
  204 7.72162370E-09
  205 7.46982592E-09
  206 7.44472652E-09
  207 7.47848668E-09
  208 7.71363385E-09
  209 7.72270197E-09
  210 7.70813195E-09
  211 7.71358503E-09
  212 7.72742313E-09
  213 7.73044347E-09
  214 7.71447850E-09
  215 7.71391113E-09
  216 7.73374310E-09
  217 7.73899001E-09
  218 7.71447382E-09
  219 7.71825058E-09
  220 7.74735402E-09
  221 7.75921501E-09
  222 7.72677134E-09
  223 7.74061080E-09
  224 7.77409513E-09
  225 7.79070948E-09
  226 7.75930323E-09
  227 7.78141863E-09
  228 7.80712043E-09
  229 7.82095430E-09
  230 7.80477798E-09
  231 7.82674734E-09
  232 7.82962899E-09
  233 7.81289041E-09
  234 7.84453867E-09
  235 7.83850574E-09
  236 7.80353806E-09
  237 7.78192999E-09
  238 7.83986965E-09
  239 7.83006802E-09
  240 7.74603286E-09
  241 7.69393706E-09
  242 7.80740625E-09
  243 7.77045323E-09
  244 7.62380123E-09
  245 7.55357033E-09
  246 7.71796667E-09
  247 7.66872860E-09
  248 7.44278262E-09
  249 7.30912488E-09
  250 7.58272739E-09
  251 7.47836233E-09
  252 7.15302023E-09
  253 6.97793708E-09
  254 7.35627855E-09
  255 7.21937783E-09
  256 6.79269365E-09
  257 6.61374646E-09
  258 7.07457609E-09
  259 6.93461906E-09
  260 6.46535998E-09
  261 6.37476238E-09
  262 6.81833784E-09
  263 6.74701044E-09
  264 6.36191218E-09
  265 6.46566137E-09
  266 6.77924897E-09
  267 6.83390139E-09
  268 6.60398987E-09
  269 6.78332664E-09
  270 6.94192692E-09
  271 7.08259673E-09
  272 6.97759151E-09
  273 7.16784827E-09
  274 7.23571822E-09
  275 7.38660233E-09
  276 7.34320174E-09
  277 7.48835531E-09
  278 7.52668685E-09
  279 7.64157179E-09
  280 7.62260932E-09
  281 7.73654033E-09
  282 7.75042548E-09
  283 7.84334554E-09
  284 7.83143786E-09
  285 7.90870027E-09
  286 7.92098114E-09
  287 7.98408704E-09
  288 7.96955537E-09
  289 8.01494697E-09
  290 8.03331123E-09
  291 8.06910006E-09
  292 8.04550773E-09
  293 8.06158189E-09
  294 8.09166544E-09
  295 8.10099217E-09
  296 8.06328840E-09
  297 8.05062922E-09
  298 8.09688387E-09
  299 8.07905696E-09
  300 8.02365469E-09
  301 7.98269629E-09
  302 8.04729839E-09
  303 8.00170050E-09
  304 7.92866425E-09
  305 7.86337915E-09
  306 7.94297405E-09
  307 7.87280946E-09
  308 7.79075706E-09
  309 7.71361023E-09
  310 7.79536446E-09
  311 7.71297926E-09
  312 7.63784919E-09
  313 7.56961594E-09
  314 7.63215863E-09
  315 7.55944226E-09
  316 7.50114499E-09
  317 7.46223736E-09
  318 7.44547387E-09
  319 7.45108053E-09
  320 7.41111336E-09
  321 7.36593013E-09
  322 7.42325602E-09
  323 7.45508041E-09
  324 7.69332327E-09
  325 7.46648624E-09
  326 7.69186680E-09
  327 7.70223912E-09
  328 7.70313429E-09
  329 7.69609315E-09
  330 7.69143423E-09
  331 7.69920525E-09
  332 7.69408721E-09
  333 7.68162326E-09
  334 7.67072985E-09
  335 7.69105900E-09
  336 7.69272631E-09
  337 7.66337902E-09
  338 7.66225303E-09
  339 7.70105136E-09
  340 7.71683248E-09
  341 7.67001755E-09
  342 7.68772355E-09
  343 7.73959470E-09
  344 7.76770103E-09
  345 7.71485380E-09
  346 7.74948256E-09
  347 7.79864957E-09
  348 7.82946849E-09
  349 7.78868253E-09
  350 7.82904956E-09
  351 7.85710747E-09
  352 7.86251329E-09
  353 7.86720378E-09
  354 7.88465099E-09
  355 7.87531305E-09
  356 7.87805688E-09
  357 7.90942967E-09
  358 7.92520885E-09
  359 7.86943397E-09
  360 7.84855552E-09
  361 7.93108732E-09
  362 7.92675222E-09
  363 7.81013825E-09
  364 7.78801797E-09
  365 7.90765109E-09
  366 7.90845683E-09
  367 7.72867314E-09
  368 7.65607235E-09
  369 7.87647937E-09
  370 7.83656361E-09
  371 7.57125462E-09
  372 7.47667856E-09
  373 7.79022465E-09
  374 7.73954841E-09
  375 7.37730813E-09
  376 7.28176825E-09
  377 7.68755151E-09
  378 7.63858850E-09
  379 7.20254458E-09
  380 7.15369665E-09
  381 7.59842084E-09
  382 7.57333698E-09
  383 7.19623052E-09
  384 7.23253256E-09
  385 7.62312516E-09
  386 7.64014686E-09
  387 7.30587137E-09
  388 7.40278147E-09
  389 7.67722021E-09
  390 7.72863118E-09
  391 7.50994928E-09
  392 7.61743393E-09
  393 7.78830053E-09
  394 7.85118174E-09
  395 7.70914397E-09
  396 7.80139233E-09
  397 7.90370261E-09
  398 7.96267881E-09
  399 7.88312708E-09
  400 7.95381452E-09
  401 8.01689024E-09
  402 8.06509979E-09
  403 8.01333766E-09
  404 8.06171725E-09
  405 8.10638369E-09
  406 8.14000619E-09
  407 8.09896110E-09
  408 8.12498079E-09
  409 8.16532611E-09
  410 8.18172123E-09
  411 8.13954723E-09
  412 8.14227801E-09
  413 8.18852946E-09
  414 8.18501428E-09
  415 8.13266237E-09
  416 8.11013787E-09
  417 8.17036782E-09
  418 8.14376884E-09
  419 8.07423667E-09
  420 8.02481791E-09
  421 8.10451562E-09
  422 8.05225158E-09
  423 7.96238934E-09
  424 7.88953813E-09
  425 7.98728859E-09
  426 7.91239717E-09
  427 7.80749425E-09
  428 7.72116618E-09
  429 7.82797088E-09
  430 7.73925048E-09
  431 7.63651380E-09
  432 7.56035996E-09
  433 7.65224902E-09
  434 7.57392596E-09
  435 7.49933844E-09
  436 7.45867629E-09
  437 7.51109463E-09
  438 7.46914165E-09
  439 7.44123920E-09
  440 7.44719050E-09
  441 7.45101438E-09
  442 7.45685469E-09
  443 7.47433226E-09
  444 7.51890367E-09
  445 7.48435560E-09
  446 7.52960120E-09
  447 7.57649113E-09
  448 7.58802049E-09
  449 7.65516369E-09
  450 7.72717986E-09
  451 7.80101476E-09
  452 7.30565589E-09
  453 7.22650149E-09
  454 7.32124220E-09
  455 7.37981382E-09
  456 7.43718739E-09
  457 7.39637768E-09
  458 7.45312657E-09
  459 7.47904933E-09
  460 7.69132246E-09
  461 7.49293431E-09
  462 7.69210966E-09
  463 7.68997554E-09
  464 7.67876354E-09
  465 7.68436977E-09
  466 7.66567889E-09
  467 7.66199996E-09
  468 7.64450044E-09
  469 7.64096361E-09
  470 7.61586696E-09
  471 7.63166240E-09
  472 7.62705573E-09
  473 7.59666048E-09
  474 7.58794460E-09
  475 7.63391354E-09
  476 7.65356585E-09
  477 7.59360857E-09
  478 7.61528003E-09
  479 7.68540566E-09
  480 7.72711615E-09
  481 7.65219876E-09
  482 7.70153687E-09
  483 7.77522309E-09
  484 7.82578351E-09
  485 7.75914025E-09
  486 7.82041855E-09
  487 7.87501578E-09
  488 7.90493323E-09
  489 7.88112091E-09
  490 7.95148995E-09
  491 7.94202324E-09
  492 7.97105189E-09
  493 7.97318290E-09
  494 8.01537055E-09
  495 7.99153531E-09
  496 7.99816691E-09
  497 8.04397491E-09
  498 8.07297278E-09
  499 8.00382335E-09
  500 8.02728778E-09
  501 8.09701568E-09
  502 8.14211032E-09
  503 8.02227719E-09
  504 8.01449630E-09
  505 8.16266828E-09
  506 8.18518013E-09
  507 8.00593895E-09
  508 7.99834325E-09
  509 8.21206496E-09
  510 8.24471504E-09
  511 7.99283419E-09
  512 7.98958320E-09
  513 8.28247754E-09
  514 8.32163016E-09
  515 7.98773364E-09
  516 8.04271891E-09
  517 8.35518844E-09
  518 8.42855884E-09
  519 8.03899268E-09
  520 8.03715103E-09
  521 8.42686916E-09
  522 8.40761894E-09
  523 8.03890125E-09
  524 8.04609252E-09
  525 8.37692483E-09
  526 8.34351367E-09
  527 8.05966660E-09
  528 8.07001511E-09
  529 8.31470922E-09
  530 8.28546940E-09
  531 8.09387112E-09
  532 8.12055684E-09
  533 8.27401847E-09
  534 8.27072104E-09
  535 8.14805418E-09
  536 8.17444660E-09
  537 8.27332846E-09
  538 8.27933140E-09
  539 8.19803886E-09
  540 8.21737743E-09
  541 8.28635674E-09
  542 8.29231996E-09
  543 8.23121004E-09
  544 8.23841615E-09
  545 8.29543289E-09
  546 8.29413974E-09
  547 8.23793363E-09
  548 8.22870319E-09
  549 8.28703108E-09
  550 8.27276986E-09
  551 8.20965052E-09
  552 8.17972632E-09
  553 8.25005545E-09
  554 8.21764784E-09
  555 8.13802506E-09
  556 8.08400074E-09
  557 8.17447299E-09
  558 8.12064400E-09
  559 8.01896580E-09
  560 7.94235594E-09
  561 8.05527259E-09
  562 7.97925762E-09
  563 7.85718834E-09
  564 7.76778708E-09
  565 7.89502612E-09
  566 7.80669642E-09
  567 7.68008408E-09
  568 7.60100908E-09
  569 7.71998642E-09
  570 7.64162699E-09
  571 7.53739224E-09
  572 7.49466427E-09
  573 7.57829581E-09
  574 7.53534465E-09
  575 7.47581814E-09
  576 7.48102284E-09
  577 7.51577089E-09
  578 7.51981840E-09
  579 7.50797339E-09
  580 7.55273642E-09
  581 7.54529845E-09
  582 7.58840310E-09
  583 7.61071488E-09
  584 7.67743397E-09
  585 7.64464582E-09
  586 7.70963558E-09
  587 7.74902391E-09
  588 7.82241920E-09
  589 7.77955800E-09
  590 7.85137902E-09
  591 7.89536066E-09
  592 7.96629172E-09
  593 7.92285325E-09
  594 7.99242646E-09
  595 7.00566139E-09
  596 7.15246659E-09
  597 7.24397916E-09
  598 7.34067042E-09
  599 7.26690270E-09
  600 7.36448880E-09
  601 7.41598315E-09
  602 7.47135877E-09
  603 7.43905842E-09
  604 7.49226208E-09
  605 7.69315748E-09
  606 7.69482637E-09
  607 7.70457827E-09
  608 7.70028237E-09
  609 7.68002207E-09
  610 7.65310295E-09
  611 7.67799051E-09
  612 7.64239658E-09
  613 7.61962501E-09
  614 7.58612490E-09
  615 7.59967959E-09
  616 7.55730678E-09
  617 7.55949050E-09
  618 7.54653064E-09
  619 7.52330404E-09
  620 7.50540989E-09
  621 7.55081920E-09
  622 7.57463436E-09
  623 7.50829200E-09
  624 7.53440490E-09
  625 7.61698442E-09
  626 7.67440279E-09
  627 7.58243903E-09
  628 7.64817341E-09
  629 7.74192667E-09
  630 7.81422413E-09
  631 7.72573694E-09
  632 7.80899851E-09
  633 7.89891226E-09
  634 7.96877301E-09
  635 7.90491977E-09
  636 7.98640506E-09
  637 8.03227588E-09
  638 8.05821854E-09
  639 8.06164514E-09
  640 8.09355178E-09
  641 8.10068165E-09
  642 8.14473172E-09
  643 8.15517428E-09
  644 8.21294990E-09
  645 8.18591624E-09
  646 8.22705148E-09
  647 8.26954932E-09
  648 8.32836065E-09
  649 8.29482520E-09
  650 8.34471662E-09
  651 8.41652096E-09
  652 8.49003234E-09
  653 8.40338206E-09
  654 8.47187020E-09
  655 8.57580470E-09
  656 8.67455947E-09
  657 8.54792912E-09
  658 8.62439773E-09
  659 8.78268820E-09
  660 8.89017701E-09
  661 8.74059004E-09
  662 8.77445765E-09
  663 9.02371521E-09
  664 9.07207731E-09
  665 8.77433718E-09
  666 8.73985770E-09
  667 9.07308560E-09
  668 9.02604873E-09
  669 8.68091324E-09
  670 8.61211308E-09
  671 8.94387329E-09
  672 8.84588287E-09
  673 8.54625251E-09
  674 8.48230474E-09
  675 8.74191633E-09
  676 8.65638748E-09
  677 8.43961500E-09
  678 8.40962367E-09
  679 8.58731240E-09
  680 8.53455520E-09
  681 8.38993065E-09
  682 8.37755959E-09
  683 8.49565677E-09
  684 8.46732160E-09
  685 8.36959181E-09
  686 8.36343200E-09
  687 8.44624108E-09
  688 8.42944990E-09
  689 8.35685756E-09
  690 8.34795994E-09
  691 8.41440867E-09
  692 8.39894980E-09
  693 8.33504846E-09
  694 8.31656173E-09
  695 8.38117417E-09
  696 8.35935241E-09
  697 8.29101759E-09
  698 8.25702482E-09
  699 8.33186541E-09
  700 8.29720793E-09
  701 8.21337682E-09
  702 8.16048990E-09
  703 8.25486541E-09
  704 8.20322447E-09
  705 8.09648414E-09
  706 8.02252708E-09
  707 8.14178600E-09
  708 8.07121078E-09
  709 7.94083232E-09
  710 7.85524187E-09
  711 7.99347930E-09
  712 7.91210235E-09
  713 7.77114099E-09
  714 7.69490767E-09
  715 7.83203854E-09
  716 7.75918940E-09
  717 7.63291000E-09
  718 7.59030327E-09
  719 7.69948493E-09
  720 7.65778383E-09
  721 7.57004528E-09
  722 7.57249323E-09
  723 7.63696088E-09
  724 7.63750937E-09
  725 7.59567662E-09
  726 7.63604439E-09
  727 7.65775398E-09
  728 7.69450594E-09
  729 7.68934867E-09
  730 7.75138606E-09
  731 7.74386334E-09
  732 7.80190120E-09
  733 7.81846987E-09
  734 7.88764016E-09
  735 7.86512659E-09
  736 7.93069530E-09
  737 7.95668510E-09
  738 8.02405682E-09
  739 7.99645064E-09
  740 8.06085840E-09
  741 5.76889163E-09
  742 6.10159437E-09
  743 6.39831682E-09
  744 6.63166279E-09
  745 6.84853617E-09
  746 6.65523879E-09
  747 6.87918173E-09
  748 7.03003148E-09
  749 7.18046977E-09
  750 7.06540346E-09
  751 7.21731705E-09
  752 7.29605960E-09
  753 7.39329861E-09
  754 7.33224668E-09
  755 7.42774651E-09
  756 7.46611229E-09
  757 7.51633195E-09
  758 7.49773982E-09
  759 7.54419522E-09
  760 7.71995613E-09
  761 7.70951179E-09
  762 7.74020813E-09
  763 7.72374929E-09
  764 7.67966124E-09
  765 7.63538328E-09
  766 7.68670770E-09
  767 7.63428849E-09
  768 7.58344527E-09
  769 7.53223588E-09
  770 7.57378101E-09
  771 7.51442353E-09
  772 7.49093274E-09
  773 7.46822992E-09
  774 7.46646955E-09
  775 7.43944932E-09
  776 7.46985554E-09
  777 7.49839777E-09
  778 7.44022991E-09
  779 7.47123103E-09
  780 7.55214936E-09
  781 7.62606100E-09
  782 7.53037724E-09
  783 7.61179416E-09
  784 7.71331536E-09
  785 7.81733223E-09
  786 7.71570733E-09
  787 7.82104430E-09
  788 7.91351700E-09
  789 8.00571622E-09
  790 7.92666729E-09
  791 8.02816094E-09
  792 8.09163824E-09
  793 8.13479417E-09
  794 8.12327587E-09
  795 8.21166519E-09
  796 8.20758647E-09
  797 8.27738555E-09
  798 8.25821071E-09
  799 8.33801481E-09
  800 8.34726342E-09
  801 8.42103340E-09
  802 8.41871331E-09
  803 8.50437875E-09
  804 8.52612733E-09
  805 8.61886812E-09
  806 8.62261562E-09
  807 8.72977871E-09
  808 8.72634070E-09
  809 8.84897099E-09
  810 8.85307426E-09
  811 8.99267132E-09
  812 8.98208869E-09
  813 9.15678487E-09
  814 9.14316303E-09
  815 9.32594911E-09
  816 9.25710807E-09
  817 9.31628540E-09
  818 9.43825012E-09
  819 9.50451062E-09
  820 9.31807962E-09
  821 9.26150634E-09
  822 9.50686235E-09
  823 9.44401884E-09
  824 9.16162627E-09
  825 9.04120844E-09
  826 9.33226098E-09
  827 9.19157069E-09
  828 8.91387353E-09
  829 8.80509913E-09
  830 9.05278365E-09
  831 8.92716472E-09
  832 8.71490590E-09
  833 8.64364335E-09
  834 8.82123610E-09
  835 8.73580131E-09
  836 8.58889631E-09
  837 8.54721206E-09
  838 8.66860732E-09
  839 8.61621911E-09
  840 8.51506163E-09
  841 8.48926196E-09
  842 8.57506658E-09
  843 8.54190738E-09
  844 8.46708256E-09
  845 8.44619491E-09
  846 8.51394804E-09
  847 8.48879606E-09
  848 8.42456498E-09
  849 8.40034940E-09
  850 8.46435168E-09
  851 8.43870449E-09
  852 8.37183206E-09
  853 8.33742440E-09
  854 8.41007242E-09
  855 8.37754291E-09
  856 8.29699050E-09
  857 8.24793836E-09
  858 8.33916719E-09
  859 8.29358787E-09
  860 8.19012624E-09
  861 8.12406180E-09
  862 8.24029736E-09
  863 8.17965325E-09
  864 8.05147986E-09
  865 7.97552334E-09
  866 8.11313899E-09
  867 8.04351210E-09
  868 7.90066124E-09
  869 7.83223486E-09
  870 7.97472150E-09
  871 7.91150673E-09
  872 7.77564662E-09
  873 7.73538458E-09
  874 7.85869544E-09
  875 7.82036048E-09
  876 7.71420105E-09
  877 7.71273007E-09
  878 7.79909948E-09
  879 7.79567535E-09
  880 7.72963609E-09
  881 7.76216275E-09
  882 7.80910404E-09
  883 7.83709377E-09
  884 7.80683199E-09
  885 7.86006826E-09
  886 7.87663491E-09
  887 7.92454900E-09
  888 7.91862851E-09
  889 7.97982312E-09
  890 7.97788583E-09
  891 8.03414448E-09
  892 8.04157389E-09
  893 8.10237160E-09
  894 8.09134937E-09
  895 8.14803133E-09
  896 4.12159665E-09
  897 4.09166040E-09
  898 4.26159526E-09
  899 4.58895903E-09
  900 4.98914936E-09
  901 5.40793509E-09
  902 5.80543867E-09
  903 5.42594963E-09
  904 5.84548699E-09
  905 6.16448919E-09
  906 6.48420541E-09
  907 6.22348953E-09
  908 6.54499490E-09
  909 6.69810012E-09
  910 6.92608042E-09
  911 6.82074000E-09
  912 6.99002501E-09
  913 7.11077082E-09
  914 7.26399443E-09
  915 7.17193980E-09
  916 7.31715075E-09
  917 7.37623096E-09
  918 7.46850463E-09
  919 7.42869750E-09
  920 7.51623428E-09
  921 7.53461297E-09
  922 7.76344346E-09
  923 7.57745015E-09
  924 7.71686812E-09
  925 7.76634583E-09
  926 7.74435758E-09
  927 7.79939836E-09
  928 7.77270464E-09
  929 7.70097401E-09
  930 7.64156515E-09
  931 7.72428302E-09
  932 7.65960670E-09
  933 7.57384304E-09
  934 7.50774986E-09
  935 7.58667996E-09
  936 7.51592889E-09
  937 7.45442820E-09
  938 7.42425279E-09
  939 7.45908585E-09
  940 7.42704698E-09
  941 7.42451325E-09
  942 7.45781081E-09
  943 7.42737225E-09
  944 7.46254379E-09
  945 7.52156079E-09
  946 7.60917348E-09
  947 7.52960609E-09
  948 7.62722197E-09
  949 7.72028369E-09
  950 7.83314654E-09
  951 7.73783403E-09
  952 7.85572271E-09
  953 7.94627047E-09
  954 8.05514319E-09
  955 7.97389908E-09
  956 8.08782940E-09
  957 8.15756040E-09
  958 8.25328974E-09
  959 8.19534591E-09
  960 8.29626148E-09
  961 8.30743951E-09
  962 8.39499654E-09
  963 8.35571011E-09
  964 8.44864150E-09
  965 8.48384548E-09
  966 8.57813994E-09
  967 8.54288846E-09
  968 8.64250551E-09
  969 8.70557533E-09
  970 8.82216746E-09
  971 8.77524323E-09
  972 8.89634245E-09
  973 8.95521431E-09
  974 9.10466217E-09
  975 9.03318805E-09
  976 9.18552579E-09
  977 9.30787297E-09
  978 9.44892116E-09
  979 9.38664611E-09
  980 9.52764333E-09
  981 9.56688190E-09
  982 9.63651779E-09
  983 9.64518126E-09
  984 9.71459652E-09
  985 9.63927244E-09
  986 9.57353572E-09
  987 9.71759132E-09
  988 9.65223155E-09
  989 9.45582651E-09
  990 9.30736668E-09
  991 9.53430472E-09
  992 9.38468151E-09
  993 9.15864458E-09
  994 9.02248928E-09
  995 9.23277535E-09
  996 9.09203240E-09
  997 8.90607410E-09
  998 8.81065026E-09
  999 8.97001182E-09
  1000 8.86843122E-09
  1001 8.73426527E-09
  1002 8.67369064E-09
  1003 8.78579558E-09
  1004 8.71928391E-09
  1005 8.62550269E-09
  1006 8.58656148E-09
  1007 8.66581306E-09
  1008 8.62250895E-09
  1009 8.55413763E-09
  1010 8.52586639E-09
  1011 8.58683007E-09
  1012 8.55652297E-09
  1013 8.49964275E-09
  1014 8.47352507E-09
  1015 8.52952558E-09
  1016 8.50388576E-09
  1017 8.44568389E-09
  1018 8.41561902E-09
  1019 8.47841652E-09
  1020 8.45096270E-09
  1021 8.38039339E-09
  1022 8.33906122E-09
  1023 8.41964832E-09
  1024 8.38324527E-09
  1025 8.29102699E-09
  1026 8.23649969E-09
  1027 8.34106529E-09
  1028 8.29316916E-09
  1029 8.17671233E-09
  1030 8.11403742E-09
  1031 8.24054676E-09
  1032 8.18520123E-09
  1033 8.05190317E-09
  1034 7.99444439E-09
  1035 8.13006396E-09
  1036 8.07869292E-09
  1037 7.94590570E-09
  1038 7.90992866E-09
  1039 8.03477284E-09
  1040 8.00152200E-09
  1041 7.88893333E-09
  1042 7.88378770E-09
  1043 7.98117018E-09
  1044 7.97466069E-09
  1045 7.89384310E-09
  1046 7.91727012E-09
  1047 7.98164461E-09
  1048 8.00072598E-09
  1049 7.95154013E-09
  1050 7.99389511E-09
  1051 8.02984281E-09
  1052 8.06665875E-09
  1053 8.04170580E-09
  1054 8.09268739E-09
  1055 8.10887846E-09
  1056 8.15445228E-09
  1057 8.14499005E-09
  1058 8.19720221E-09
  1059 8.20167644E-09
  1060 8.24921529E-09
  1061 7.17309149E-09
  1062 7.18756037E-09
  1063 7.14488285E-09
  1064 7.03369900E-09
  1065 6.90310502E-09
  1066 6.64627158E-09
  1067 6.14928859E-09
  1068 5.72782184E-09
  1069 6.30695134E-09
  1070 5.89057995E-09
  1071 5.25579848E-09
  1072 4.78355325E-09
  1073 5.42098289E-09
  1074 4.94872513E-09
  1075 4.38521514E-09
  1076 4.14215503E-09
  1077 4.54792848E-09
  1078 4.30184578E-09
  1079 4.10998297E-09
  1080 4.29077990E-09
  1081 4.26778562E-09
  1082 4.44839210E-09
  1083 4.63686221E-09
  1084 5.04870899E-09
  1085 4.77914746E-09
  1086 5.20432003E-09
  1087 5.49871058E-09
  1088 5.93610888E-09
  1089 5.65078960E-09
  1090 6.06865894E-09
  1091 6.31691889E-09
  1092 6.63626759E-09
  1093 6.43607952E-09
  1094 6.76526169E-09
  1095 6.90726760E-09
  1096 7.13699250E-09
  1097 7.01761625E-09
  1098 7.24084918E-09
  1099 7.32058175E-09
  1100 7.46672864E-09
  1101 7.40818351E-09
  1102 7.54439872E-09
  1103 7.49018577E-09
  1104 7.57153259E-09
  1105 7.64895824E-09
  1106 7.75356673E-09
  1107 7.73885990E-09
  1108 7.76085551E-09
  1109 7.79522270E-09
  1110 7.81232516E-09
  1111 7.84030819E-09
  1112 7.81000612E-09
  1113 7.80597606E-09
  1114 7.85716525E-09
  1115 7.75819738E-09
  1116 7.69039522E-09
  1117 7.80378949E-09
  1118 7.73517539E-09
  1119 7.61473944E-09
  1120 7.54186035E-09
  1121 7.65942422E-09
  1122 7.58706099E-09
  1123 7.48369437E-09
  1124 7.45125098E-09
  1125 7.52980685E-09
  1126 7.49835592E-09
  1127 7.45212510E-09
  1128 7.48847628E-09
  1129 7.49986007E-09
  1130 7.53665011E-09
  1131 7.56114509E-09
  1132 7.65748440E-09
  1133 7.61043066E-09
  1134 7.70595919E-09
  1135 7.77010111E-09
  1136 7.89010765E-09
  1137 7.81756663E-09
  1138 7.93667376E-09
  1139 8.01056454E-09
  1140 8.12698900E-09
  1141 8.05657379E-09
  1142 8.17289946E-09
  1143 8.23723114E-09
  1144 8.34107054E-09
  1145 8.28349662E-09
  1146 8.38803563E-09
  1147 8.40346023E-09
  1148 8.49938654E-09
  1149 8.46765708E-09
  1150 8.54777081E-09
  1151 8.59634170E-09
  1152 8.69811177E-09
  1153 8.64495283E-09
  1154 8.74601753E-09
  1155 8.80875650E-09
  1156 8.95355020E-09
  1157 8.85455091E-09
  1158 8.99593303E-09
  1159 9.08870920E-09
  1160 9.27784813E-09
  1161 9.18018097E-09
  1162 9.30535511E-09
  1163 9.43197669E-09
  1164 9.56643273E-09
  1165 9.44928850E-09
  1166 9.57192769E-09
  1167 9.67803991E-09
  1168 9.74390569E-09
  1169 9.67308107E-09
  1170 9.73256500E-09
  1171 9.74688195E-09
  1172 9.68475943E-09
  1173 9.73511819E-09
  1174 9.67835935E-09
  1175 9.56958189E-09
  1176 9.42679098E-09
  1177 9.57188289E-09
  1178 9.43858599E-09
  1179 9.27775556E-09
  1180 9.13771117E-09
  1181 9.29734834E-09
  1182 9.16229425E-09
  1183 9.01435869E-09
  1184 8.90991187E-09
  1185 9.04103226E-09
  1186 8.93628844E-09
  1187 8.82349644E-09
  1188 8.75290428E-09
  1189 8.84795728E-09
  1190 8.77464016E-09
  1191 8.69558989E-09
  1192 8.64910882E-09
  1193 8.71452405E-09
  1194 8.66575719E-09
  1195 8.61122676E-09
  1196 8.57987486E-09
  1197 8.62652740E-09
  1198 8.59501195E-09
  1199 8.55306642E-09
  1200 8.52902538E-09
  1201 8.56931274E-09
  1202 8.54810424E-09
  1203 8.50642091E-09
  1204 8.48261376E-09
  1205 8.52897466E-09
  1206 8.50965581E-09
  1207 8.45594123E-09
  1208 8.42508729E-09
  1209 8.48835813E-09
  1210 8.46364937E-09
  1211 8.38926074E-09
  1212 8.34837450E-09
  1213 8.43462119E-09
  1214 8.40103986E-09
  1215 8.30318835E-09
  1216 8.25536374E-09
  1217 8.36345329E-09
  1218 8.32321782E-09
  1219 8.20737700E-09
  1220 8.16225907E-09
  1221 8.28240817E-09
  1222 8.24359130E-09
  1223 8.12318009E-09
  1224 8.09296119E-09
  1225 8.20948161E-09
  1226 8.18254139E-09
  1227 8.07363917E-09
  1228 8.06620244E-09
  1229 8.16462067E-09
  1230 8.15672649E-09
  1231 8.07055580E-09
  1232 8.08569060E-09
  1233 8.15896896E-09
  1234 8.17067243E-09
  1235 8.10997748E-09
  1236 8.14148496E-09
  1237 8.19059426E-09
  1238 8.21717821E-09
  1239 8.17825068E-09
  1240 8.21847028E-09
  1241 8.24878253E-09
  1242 8.28384958E-09
  1243 8.26060182E-09
  1244 8.30340269E-09
  1245 8.32100952E-09
  1246 8.35912717E-09
  1247 5.66072322E-09
  1248 5.57324300E-09
  1249 5.52174294E-09
  1250 4.90762090E-09
  1251 4.54876573E-09
  1252 4.26421920E-09
  1253 4.10759187E-09
  1254 4.11253021E-09
  1255 4.28779080E-09
  1256 4.61107505E-09
  1257 5.45851169E-09
  1258 5.01900046E-09
  1259 5.45854780E-09
  1260 5.85588095E-09
  1261 6.25378685E-09
  1262 5.88525090E-09
  1263 6.30659952E-09
  1264 6.56973866E-09
  1265 6.82701569E-09
  1266 6.64276864E-09
  1267 6.91694163E-09
  1268 7.02514826E-09
  1269 7.16595938E-09
  1270 7.12975519E-09
  1271 7.28399489E-09
  1272 7.28783988E-09
  1273 7.31477786E-09
  1274 7.42372879E-09
  1275 7.45472301E-09
  1276 7.28475085E-09
  1277 7.23254995E-09
  1278 7.47739097E-09
  1279 7.39805929E-09
  1280 7.06868783E-09
  1281 6.82834716E-09
  1282 7.25237194E-09
  1283 7.03397292E-09
  1284 6.50764871E-09
  1285 6.11250536E-09
  1286 6.74067354E-09
  1287 6.37982136E-09
  1288 5.66691067E-09
  1289 5.21820396E-09
  1290 5.97556494E-09
  1291 5.57071126E-09
  1292 4.83717473E-09
  1293 4.60206876E-09
  1294 5.22850626E-09
  1295 5.01712554E-09
  1296 4.56724880E-09
  1297 4.73617021E-09
  1298 4.98401583E-09
  1299 5.13319771E-09
  1300 5.04429089E-09
  1301 5.44797256E-09
  1302 5.40269848E-09
  1303 5.76760572E-09
  1304 5.86865339E-09
  1305 6.26622088E-09
  1306 6.14914581E-09
  1307 6.50971315E-09
  1308 6.61128582E-09
  1309 6.90051670E-09
  1310 6.82147420E-09
  1311 7.08125828E-09
  1312 7.16166296E-09
  1313 7.35712303E-09
  1314 7.29206846E-09
  1315 7.48903895E-09
  1316 7.51283154E-09
  1317 7.63311812E-09
  1318 7.62653457E-09
  1319 7.73210407E-09
  1320 7.72735043E-09
  1321 7.82405328E-09
  1322 7.93320289E-09
  1323 7.98887873E-09
  1324 7.85944408E-09
  1325 7.87175322E-09
  1326 7.93159089E-09
  1327 7.93935524E-09
  1328 7.86187186E-09
  1329 7.91465059E-09
  1330 7.92656158E-09
  1331 7.89520139E-09
  1332 7.86148488E-09
  1333 7.79425503E-09
  1334 7.93102562E-09
  1335 7.86699628E-09
  1336 7.72084624E-09
  1337 7.65137890E-09
  1338 7.79786373E-09
  1339 7.73309486E-09
  1340 7.59697161E-09
  1341 7.56762754E-09
  1342 7.68290856E-09
  1343 7.65635268E-09
  1344 7.56993120E-09
  1345 7.61142032E-09
  1346 7.66631368E-09
  1347 7.70138668E-09
  1348 7.67947364E-09
  1349 7.77162068E-09
  1350 7.76542782E-09
  1351 7.85204446E-09
  1352 7.87939786E-09
  1353 7.99480114E-09
  1354 7.95365801E-09
  1355 8.06303162E-09
  1356 8.11151255E-09
  1357 8.22533596E-09
  1358 8.17435216E-09
  1359 8.28364128E-09
  1360 8.33409629E-09
  1361 8.41615868E-09
  1362 8.36657563E-09
  1363 8.46737556E-09
  1364 8.51560273E-09
  1365 8.59440893E-09
  1366 8.56408553E-09
  1367 8.65792179E-09
  1368 8.68967461E-09
  1369 8.78763639E-09
  1370 8.73159835E-09
  1371 8.82462494E-09
  1372 8.89130167E-09
  1373 9.09768835E-09
  1374 9.03422003E-09
  1375 9.12101462E-09
  1376 9.20196520E-09
  1377 9.31475209E-09
  1378 9.21372050E-09
  1379 9.31194618E-09
  1380 9.44544367E-09
  1381 9.55259455E-09
  1382 9.42801177E-09
  1383 9.51778691E-09
  1384 9.64012593E-09
  1385 9.69113583E-09
  1386 9.59007352E-09
  1387 9.63141782E-09
  1388 9.69273098E-09
  1389 9.64090883E-09
  1390 9.63101592E-09
  1391 9.58523609E-09
  1392 9.54683589E-09
  1393 9.42635542E-09
  1394 9.50351025E-09
  1395 9.39728167E-09
  1396 9.29631561E-09
  1397 9.16924448E-09
  1398 9.28007356E-09
  1399 9.16248624E-09
  1400 9.05242829E-09
  1401 8.94908292E-09
  1402 9.05126492E-09
  1403 8.95004080E-09
  1404 8.85998018E-09