# File generated by Flopy version 3.9.1 on 02/10/2026 at 20:55:49.
BEGIN options
END options

BEGIN timing
  TDIS6  struc_caseB.tdis
END timing

BEGIN models
  gwf6  struc_caseB.nam  struc_caseb
END models

BEGIN exchanges
END exchanges

BEGIN solutiongroup  1
  ims6  struc_caseB.ims  struc_caseb
END solutiongroup  1

