# File generated by Flopy version 3.9.1 on 02/10/2026 at 20:55:49.
BEGIN options
END options

BEGIN packages
  dis6  struc_caseB.dis  dis
  ic6  struc_caseB.ic  ic
  chd6  struc_caseB.chd  chd
  npf6  struc_caseB.npf  npf
  wel6  struc_caseB.wel  well_package
  rch6  struc_caseB.rch  rch
  evt6  struc_caseB.evt  evt
  oc6  struc_caseB.oc  oc
END packages

