# File generated by Flopy version 3.9.1 on 02/11/2026 at 08:33:57.
BEGIN options
  SAVE_FLOWS
END options

BEGIN dimensions
  MAXBOUND  9044
END dimensions

BEGIN period  1
  1 0.00000000E+00
  2 0.00000000E+00
  3 0.00000000E+00
  4 0.00000000E+00
  5 0.00000000E+00
  6 0.00000000E+00
  7 0.00000000E+00
  8 0.00000000E+00
  9 0.00000000E+00
  10 0.00000000E+00
  11 0.00000000E+00
  12 0.00000000E+00
  13 0.00000000E+00
  14 0.00000000E+00
  15 0.00000000E+00
  16 0.00000000E+00
  17 0.00000000E+00
  18 0.00000000E+00
  19 0.00000000E+00
  20 0.00000000E+00
  21 0.00000000E+00
  22 0.00000000E+00
  23 0.00000000E+00
  24 0.00000000E+00
  25 0.00000000E+00
  26 0.00000000E+00
  27 0.00000000E+00
  28 0.00000000E+00
  29 0.00000000E+00
  30 0.00000000E+00
  31 0.00000000E+00
  32 0.00000000E+00
  33 0.00000000E+00
  34 0.00000000E+00
  35 0.00000000E+00
  36 0.00000000E+00
  37 0.00000000E+00
  38 0.00000000E+00
  39 0.00000000E+00
  40 0.00000000E+00
  41 0.00000000E+00
  42 0.00000000E+00
  43 0.00000000E+00
  44 0.00000000E+00
  45 0.00000000E+00
  46 0.00000000E+00
  47 0.00000000E+00
  48 0.00000000E+00
  49 0.00000000E+00
  50 0.00000000E+00
  51 0.00000000E+00
  52 0.00000000E+00
  53 0.00000000E+00
  54 0.00000000E+00
  55 0.00000000E+00
  56 0.00000000E+00
  57 0.00000000E+00
  58 0.00000000E+00
  59 0.00000000E+00
  60 0.00000000E+00
  61 0.00000000E+00
  62 0.00000000E+00
  63 0.00000000E+00
  64 0.00000000E+00
  65 0.00000000E+00
  66 0.00000000E+00
  67 0.00000000E+00
  68 0.00000000E+00
  69 0.00000000E+00
  70 0.00000000E+00
  71 0.00000000E+00
  72 0.00000000E+00
  73 0.00000000E+00
  74 0.00000000E+00
  75 0.00000000E+00
  76 0.00000000E+00
  77 0.00000000E+00
  78 0.00000000E+00
  79 0.00000000E+00
  80 0.00000000E+00
  81 0.00000000E+00
  82 0.00000000E+00
  83 0.00000000E+00
  84 0.00000000E+00
  85 0.00000000E+00
  86 0.00000000E+00
  87 0.00000000E+00
  88 0.00000000E+00
  89 0.00000000E+00
  90 0.00000000E+00
  91 0.00000000E+00
  92 0.00000000E+00
  93 0.00000000E+00
  97 0.00000000E+00
  98 0.00000000E+00
  99 0.00000000E+00
  100 0.00000000E+00
  101 0.00000000E+00
  102 0.00000000E+00
  103 0.00000000E+00
  104 0.00000000E+00
  106 0.00000000E+00
  109 0.00000000E+00
  110 0.00000000E+00
  111 0.00000000E+00
  112 0.00000000E+00
  113 0.00000000E+00
  114 0.00000000E+00
  115 0.00000000E+00
  116 0.00000000E+00
  117 0.00000000E+00
  118 0.00000000E+00
  119 0.00000000E+00
  120 0.00000000E+00
  121 0.00000000E+00
  122 0.00000000E+00
  123 0.00000000E+00
  124 0.00000000E+00
  125 0.00000000E+00
  126 0.00000000E+00
  127 0.00000000E+00
  128 0.00000000E+00
  129 0.00000000E+00
  130 0.00000000E+00
  131 0.00000000E+00
  132 0.00000000E+00
  133 0.00000000E+00
  134 0.00000000E+00
  135 0.00000000E+00
  136 0.00000000E+00
  137 0.00000000E+00
  138 0.00000000E+00
  139 0.00000000E+00
  140 0.00000000E+00
  141 0.00000000E+00
  142 0.00000000E+00
  143 0.00000000E+00
  144 0.00000000E+00
  145 0.00000000E+00
  146 0.00000000E+00
  147 0.00000000E+00
  148 0.00000000E+00
  149 0.00000000E+00
  150 0.00000000E+00
  151 0.00000000E+00
  152 0.00000000E+00
  153 0.00000000E+00
  154 0.00000000E+00
  155 0.00000000E+00
  156 0.00000000E+00
  157 0.00000000E+00
  158 0.00000000E+00
  159 0.00000000E+00
  160 0.00000000E+00
  161 0.00000000E+00
  162 0.00000000E+00
  163 0.00000000E+00
  164 0.00000000E+00
  165 0.00000000E+00
  166 0.00000000E+00
  167 0.00000000E+00
  168 0.00000000E+00
  169 0.00000000E+00
  170 0.00000000E+00
  171 0.00000000E+00
  172 0.00000000E+00
  173 0.00000000E+00
  174 0.00000000E+00
  175 0.00000000E+00
  176 0.00000000E+00
  177 0.00000000E+00
  178 0.00000000E+00
  179 0.00000000E+00
  180 0.00000000E+00
  181 0.00000000E+00
  182 0.00000000E+00
  183 0.00000000E+00
  184 0.00000000E+00
  185 0.00000000E+00
  186 0.00000000E+00
  187 0.00000000E+00
  188 0.00000000E+00
  189 0.00000000E+00
  190 0.00000000E+00
  191 0.00000000E+00
  192 0.00000000E+00
  193 0.00000000E+00
  194 0.00000000E+00
  195 0.00000000E+00
  196 0.00000000E+00
  197 0.00000000E+00
  198 0.00000000E+00
  199 0.00000000E+00
  200 0.00000000E+00
  201 0.00000000E+00
  202 0.00000000E+00
  203 0.00000000E+00
  204 0.00000000E+00
  205 0.00000000E+00
  206 0.00000000E+00
  207 0.00000000E+00
  208 0.00000000E+00
  209 0.00000000E+00
  210 0.00000000E+00
  211 0.00000000E+00
  212 0.00000000E+00
  213 0.00000000E+00
  214 0.00000000E+00
  215 0.00000000E+00
  216 0.00000000E+00
  217 0.00000000E+00
  218 0.00000000E+00
  219 0.00000000E+00
  220 0.00000000E+00
  221 0.00000000E+00
  222 0.00000000E+00
  223 0.00000000E+00
  224 0.00000000E+00
  225 0.00000000E+00
  226 0.00000000E+00
  227 0.00000000E+00
  228 0.00000000E+00
  229 0.00000000E+00
  230 0.00000000E+00
  231 0.00000000E+00
  232 0.00000000E+00
  233 0.00000000E+00
  234 0.00000000E+00
  235 0.00000000E+00
  236 0.00000000E+00
  237 0.00000000E+00
  238 0.00000000E+00
  239 0.00000000E+00
  240 0.00000000E+00
  241 0.00000000E+00
  242 0.00000000E+00
  243 0.00000000E+00
  245 0.00000000E+00
  246 0.00000000E+00
  247 0.00000000E+00
  248 0.00000000E+00
  249 0.00000000E+00
  250 0.00000000E+00
  258 0.00000000E+00
  270 0.00000000E+00
  278 0.00000000E+00
  279 0.00000000E+00
  282 0.00000000E+00
  283 0.00000000E+00
  285 0.00000000E+00
  294 0.00000000E+00
  295 0.00000000E+00
  296 0.00000000E+00
  297 0.00000000E+00
  298 0.00000000E+00
  299 0.00000000E+00
  300 0.00000000E+00
  301 0.00000000E+00
  303 0.00000000E+00
  306 0.00000000E+00
  307 0.00000000E+00
  310 0.00000000E+00
  311 0.00000000E+00
  312 0.00000000E+00
  313 0.00000000E+00
  314 0.00000000E+00
  315 0.00000000E+00
  316 0.00000000E+00
  317 0.00000000E+00
  318 0.00000000E+00
  319 0.00000000E+00
  320 0.00000000E+00
  321 0.00000000E+00
  322 0.00000000E+00
  323 0.00000000E+00
  324 0.00000000E+00
  325 0.00000000E+00
  326 0.00000000E+00
  327 0.00000000E+00
  328 0.00000000E+00
  329 0.00000000E+00
  330 0.00000000E+00
  331 0.00000000E+00
  332 0.00000000E+00
  333 0.00000000E+00
  334 0.00000000E+00
  335 0.00000000E+00
  336 0.00000000E+00
  337 0.00000000E+00
  338 0.00000000E+00
  339 0.00000000E+00
  340 0.00000000E+00
  341 0.00000000E+00
  342 0.00000000E+00
  343 0.00000000E+00
  344 0.00000000E+00
  345 0.00000000E+00
  346 0.00000000E+00
  347 0.00000000E+00
  348 0.00000000E+00
  349 0.00000000E+00
  350 0.00000000E+00
  351 0.00000000E+00
  352 0.00000000E+00
  353 0.00000000E+00
  354 0.00000000E+00
  355 0.00000000E+00
  356 0.00000000E+00
  357 0.00000000E+00
  358 0.00000000E+00
  359 0.00000000E+00
  360 0.00000000E+00
  361 0.00000000E+00
  362 0.00000000E+00
  363 0.00000000E+00
  364 0.00000000E+00
  365 0.00000000E+00
  366 0.00000000E+00
  367 0.00000000E+00
  368 0.00000000E+00
  369 0.00000000E+00
  370 0.00000000E+00
  371 0.00000000E+00
  372 0.00000000E+00
  373 0.00000000E+00
  374 0.00000000E+00
  375 0.00000000E+00
  376 0.00000000E+00
  377 0.00000000E+00
  378 0.00000000E+00
  379 0.00000000E+00
  380 0.00000000E+00
  381 0.00000000E+00
  382 0.00000000E+00
  383 0.00000000E+00
  384 0.00000000E+00
  385 0.00000000E+00
  386 0.00000000E+00
  387 0.00000000E+00
  388 0.00000000E+00
  389 0.00000000E+00
  390 0.00000000E+00
  391 0.00000000E+00
  392 0.00000000E+00
  393 0.00000000E+00
  394 0.00000000E+00
  395 0.00000000E+00
  396 0.00000000E+00
  397 0.00000000E+00
  398 0.00000000E+00
  399 0.00000000E+00
  400 0.00000000E+00
  401 0.00000000E+00
  402 0.00000000E+00
  403 0.00000000E+00
  404 0.00000000E+00
  405 0.00000000E+00
  406 0.00000000E+00
  407 0.00000000E+00
  408 0.00000000E+00
  409 0.00000000E+00
  410 0.00000000E+00
  411 0.00000000E+00
  412 0.00000000E+00
  413 0.00000000E+00
  414 0.00000000E+00
  415 0.00000000E+00
  416 0.00000000E+00
  419 0.00000000E+00
  420 0.00000000E+00
  421 0.00000000E+00
  422 0.00000000E+00
  423 0.00000000E+00
  424 0.00000000E+00
  425 0.00000000E+00
  426 0.00000000E+00
  427 0.00000000E+00
  428 0.00000000E+00
  431 0.00000000E+00
  435 0.00000000E+00
  436 0.00000000E+00
  437 0.00000000E+00
  439 0.00000000E+00
  440 0.00000000E+00
  448 0.00000000E+00
  449 0.00000000E+00
  450 0.00000000E+00
  451 0.00000000E+00
  452 0.00000000E+00
  453 0.00000000E+00
  454 0.00000000E+00
  455 0.00000000E+00
  460 0.00000000E+00
  461 0.00000000E+00
  464 0.00000000E+00
  465 0.00000000E+00
  466 0.00000000E+00
  467 0.00000000E+00
  468 0.00000000E+00
  469 0.00000000E+00
  470 0.00000000E+00
  471 0.00000000E+00
  472 0.00000000E+00
  473 0.00000000E+00
  474 0.00000000E+00
  475 0.00000000E+00
  476 0.00000000E+00
  477 0.00000000E+00
  478 0.00000000E+00
  479 0.00000000E+00
  480 0.00000000E+00
  481 0.00000000E+00
  482 0.00000000E+00
  483 0.00000000E+00
  484 0.00000000E+00
  485 0.00000000E+00
  486 0.00000000E+00
  487 0.00000000E+00
  488 0.00000000E+00
  489 0.00000000E+00
  490 0.00000000E+00
  491 0.00000000E+00
  493 0.00000000E+00
  494 0.00000000E+00
  495 0.00000000E+00
  496 0.00000000E+00
  497 0.00000000E+00
  498 0.00000000E+00
  499 0.00000000E+00
  500 0.00000000E+00
  501 0.00000000E+00
  502 0.00000000E+00
  505 0.00000000E+00
  509 0.00000000E+00
  510 0.00000000E+00
  511 0.00000000E+00
  512 0.00000000E+00
  513 0.00000000E+00
  514 0.00000000E+00
  522 0.00000000E+00
  583 0.00000000E+00
  584 0.00000000E+00
  589 0.00000000E+00
  590 0.00000000E+00
  591 0.00000000E+00
  592 0.00000000E+00
  593 0.00000000E+00
  594 0.00000000E+00
  595 0.00000000E+00
  596 0.00000000E+00
  602 0.00000000E+00
  603 0.00000000E+00
  604 0.00000000E+00
  605 0.00000000E+00
  606 0.00000000E+00
  607 0.00000000E+00
  608 0.00000000E+00
  609 0.00000000E+00
  610 0.00000000E+00
  614 0.00000000E+00
  615 0.00000000E+00
  618 0.00000000E+00
  619 0.00000000E+00
  620 0.00000000E+00
  621 0.00000000E+00
  622 0.00000000E+00
  623 0.00000000E+00
  624 0.00000000E+00
  625 0.00000000E+00
  626 0.00000000E+00
  627 0.00000000E+00
  634 0.00000000E+00
  635 0.00000000E+00
  636 0.00000000E+00
  637 0.00000000E+00
  638 0.00000000E+00
  639 0.00000000E+00
  640 0.00000000E+00
  641 0.00000000E+00
  646 0.00000000E+00
  647 0.00000000E+00
  650 0.00000000E+00
  651 0.00000000E+00
  652 0.00000000E+00
  653 0.00000000E+00
  654 0.00000000E+00
  655 0.00000000E+00
  656 0.00000000E+00
  657 0.00000000E+00
  658 0.00000000E+00
  659 0.00000000E+00
  661 0.00000000E+00
  662 0.00000000E+00
  663 0.00000000E+00
  664 0.00000000E+00
  665 0.00000000E+00
  666 0.00000000E+00
  667 0.00000000E+00
  668 0.00000000E+00
  669 0.00000000E+00
  670 0.00000000E+00
  671 0.00000000E+00
  672 0.00000000E+00
  673 0.00000000E+00
  674 0.00000000E+00
  675 0.00000000E+00
  676 0.00000000E+00
  677 0.00000000E+00
  678 0.00000000E+00
  679 0.00000000E+00
  680 0.00000000E+00
  681 0.00000000E+00
  682 0.00000000E+00
  683 0.00000000E+00
  684 0.00000000E+00
  685 0.00000000E+00
  686 0.00000000E+00
  687 0.00000000E+00
  688 0.00000000E+00
  689 0.00000000E+00
  690 0.00000000E+00
  691 0.00000000E+00
  692 0.00000000E+00
  693 0.00000000E+00
  694 0.00000000E+00
  695 0.00000000E+00
  696 0.00000000E+00
  697 0.00000000E+00
  698 0.00000000E+00
  699 0.00000000E+00
  701 0.00000000E+00
  702 0.00000000E+00
  703 0.00000000E+00
  704 0.00000000E+00
  705 0.00000000E+00
  706 0.00000000E+00
  707 0.00000000E+00
  708 0.00000000E+00
  709 0.00000000E+00
  710 0.00000000E+00
  713 0.00000000E+00
  714 0.00000000E+00
  717 0.00000000E+00
  718 0.00000000E+00
  719 0.00000000E+00
  720 0.00000000E+00
  721 0.00000000E+00
  722 0.00000000E+00
  723 0.00000000E+00
  724 0.00000000E+00
  725 0.00000000E+00
  726 0.00000000E+00
  733 0.00000000E+00
  734 0.00000000E+00
  737 0.00000000E+00
  865 0.00000000E+00
  866 0.00000000E+00
  868 0.00000000E+00
  871 0.00000000E+00
  874 0.00000000E+00
  875 0.00000000E+00
  876 0.00000000E+00
  877 0.00000000E+00
  878 0.00000000E+00
  879 0.00000000E+00
  880 0.00000000E+00
  881 0.00000000E+00
  882 0.00000000E+00
  883 0.00000000E+00
  884 0.00000000E+00
  885 0.00000000E+00
  886 0.00000000E+00
  887 0.00000000E+00
  888 0.00000000E+00
  889 0.00000000E+00
  890 0.00000000E+00
  891 0.00000000E+00
  892 0.00000000E+00
  893 0.00000000E+00
  894 0.00000000E+00
  895 0.00000000E+00
  896 0.00000000E+00
  897 0.00000000E+00
  898 0.00000000E+00
  899 0.00000000E+00
  900 0.00000000E+00
  901 0.00000000E+00
  902 0.00000000E+00
  903 0.00000000E+00
  904 0.00000000E+00
  905 0.00000000E+00
  906 0.00000000E+00
  907 0.00000000E+00
  908 0.00000000E+00
  909 0.00000000E+00
  910 0.00000000E+00
  911 0.00000000E+00
  912 0.00000000E+00
  913 0.00000000E+00
  914 0.00000000E+00
  915 0.00000000E+00
  916 0.00000000E+00
  917 0.00000000E+00
  918 0.00000000E+00
  919 0.00000000E+00
  920 0.00000000E+00
  921 0.00000000E+00
  922 0.00000000E+00
  923 0.00000000E+00
  924 0.00000000E+00
  925 0.00000000E+00
  926 0.00000000E+00
  927 0.00000000E+00
  928 0.00000000E+00
  929 0.00000000E+00
  930 0.00000000E+00
  931 0.00000000E+00
  932 0.00000000E+00
  933 0.00000000E+00
  934 0.00000000E+00
  935 0.00000000E+00
  936 0.00000000E+00
  937 0.00000000E+00
  938 0.00000000E+00
  939 0.00000000E+00
  943 0.00000000E+00
  944 0.00000000E+00
  945 0.00000000E+00
  946 0.00000000E+00
  947 0.00000000E+00
  949 0.00000000E+00
  1065 0.00000000E+00
  1066 0.00000000E+00
  1069 0.00000000E+00
  1070 0.00000000E+00
  1071 0.00000000E+00
  1072 0.00000000E+00
  1078 0.00000000E+00
  1079 0.00000000E+00
  1080 0.00000000E+00
  1081 0.00000000E+00
  1082 0.00000000E+00
  1083 0.00000000E+00
  1084 0.00000000E+00
  1085 0.00000000E+00
  1086 0.00000000E+00
  1087 0.00000000E+00
  1089 0.00000000E+00
  1090 0.00000000E+00
  1091 0.00000000E+00
  1092 0.00000000E+00
  1093 0.00000000E+00
  1094 0.00000000E+00
  1095 0.00000000E+00
  1096 0.00000000E+00
  1097 0.00000000E+00
  1098 0.00000000E+00
  1099 0.00000000E+00
  1100 0.00000000E+00
  1101 0.00000000E+00
  1102 0.00000000E+00
  1103 0.00000000E+00
  1104 0.00000000E+00
  1105 0.00000000E+00
  1106 0.00000000E+00
  1107 0.00000000E+00
  1108 0.00000000E+00
  1109 0.00000000E+00
  1110 0.00000000E+00
  1111 0.00000000E+00
  1112 0.00000000E+00
  1113 0.00000000E+00
  1114 0.00000000E+00
  1115 0.00000000E+00
  1116 0.00000000E+00
  1117 0.00000000E+00
  1118 0.00000000E+00
  1119 0.00000000E+00
  1120 0.00000000E+00
  1121 0.00000000E+00
  1122 0.00000000E+00
  1123 0.00000000E+00
  1124 0.00000000E+00
  1125 0.00000000E+00
  1126 0.00000000E+00
  1127 0.00000000E+00
  1128 0.00000000E+00
  1129 0.00000000E+00
  1130 0.00000000E+00
  1131 0.00000000E+00
  1132 0.00000000E+00
  1133 0.00000000E+00
  1134 0.00000000E+00
  1135 0.00000000E+00
  1136 0.00000000E+00
  1137 0.00000000E+00
  1138 0.00000000E+00
  1139 0.00000000E+00
  1140 0.00000000E+00
  1141 0.00000000E+00
  1142 0.00000000E+00
  1143 0.00000000E+00
  1144 0.00000000E+00
  1145 0.00000000E+00
  1146 0.00000000E+00
  1147 0.00000000E+00
  1148 0.00000000E+00
  1149 0.00000000E+00
  1150 0.00000000E+00
  1151 0.00000000E+00
  1152 0.00000000E+00
  1153 0.00000000E+00
  1154 0.00000000E+00
  1155 0.00000000E+00
  1156 0.00000000E+00
  1157 0.00000000E+00
  1158 0.00000000E+00
  1159 0.00000000E+00
  1160 0.00000000E+00
  1161 0.00000000E+00
  1162 0.00000000E+00
  1163 0.00000000E+00
  1164 0.00000000E+00
  1165 0.00000000E+00
  1166 0.00000000E+00
  1167 0.00000000E+00
  1168 0.00000000E+00
  1169 0.00000000E+00
  1170 0.00000000E+00
  1171 0.00000000E+00
  1172 0.00000000E+00
  1173 0.00000000E+00
  1174 0.00000000E+00
  1175 0.00000000E+00
  1176 0.00000000E+00
  1177 0.00000000E+00
  1178 0.00000000E+00
  1179 0.00000000E+00
  1180 0.00000000E+00
  1181 0.00000000E+00
  1182 0.00000000E+00
  1183 0.00000000E+00
  1184 0.00000000E+00
  1185 0.00000000E+00
  1186 0.00000000E+00
  1187 0.00000000E+00
  1188 0.00000000E+00
  1189 0.00000000E+00
  1190 0.00000000E+00
  1191 0.00000000E+00
  1192 0.00000000E+00
  1193 0.00000000E+00
  1194 0.00000000E+00
  1195 0.00000000E+00
  1196 0.00000000E+00
  1197 0.00000000E+00
  1198 0.00000000E+00
  1202 0.00000000E+00
  1203 0.00000000E+00
  1204 0.00000000E+00
  1362 0.00000000E+00
  1363 0.00000000E+00
  1368 0.00000000E+00
  1369 0.00000000E+00
  1372 0.00000000E+00
  1373 0.00000000E+00
  1375 0.00000000E+00
  1378 0.00000000E+00
  1379 0.00000000E+00
  1380 0.00000000E+00
  1382 0.00000000E+00
  1383 0.00000000E+00
  1388 0.00000000E+00
  1389 0.00000000E+00
  1390 0.00000000E+00
  1391 0.00000000E+00
  1392 0.00000000E+00
  1393 0.00000000E+00
  1394 0.00000000E+00
  1395 0.00000000E+00
  1397 0.00000000E+00
  1400 0.00000000E+00
  1401 0.00000000E+00
  1403 0.00000000E+00
  1404 0.00000000E+00
  1405 0.00000000E+00
  1406 0.00000000E+00
  1407 0.00000000E+00
  1408 0.00000000E+00
  1409 0.00000000E+00
  1410 0.00000000E+00
  1411 0.00000000E+00
  1412 0.00000000E+00
  1413 0.00000000E+00
  1414 0.00000000E+00
  1415 0.00000000E+00
  1416 0.00000000E+00
  1417 0.00000000E+00
  1418 0.00000000E+00
  1419 0.00000000E+00
  1420 0.00000000E+00
  1421 0.00000000E+00
  1422 0.00000000E+00
  1423 0.00000000E+00
  1424 0.00000000E+00
  1425 0.00000000E+00
  1426 0.00000000E+00
  1427 0.00000000E+00
  1428 0.00000000E+00
  1429 0.00000000E+00
  1430 0.00000000E+00
  1431 0.00000000E+00
  1432 0.00000000E+00
  1433 0.00000000E+00
  1434 0.00000000E+00
  1435 0.00000000E+00
  1436 0.00000000E+00
  1437 0.00000000E+00
  1438 0.00000000E+00
  1439 0.00000000E+00
  1440 0.00000000E+00
  1441 0.00000000E+00
  1442 0.00000000E+00
  1443 0.00000000E+00
  1444 0.00000000E+00
  1445 0.00000000E+00
  1446 0.00000000E+00
  1452 0.00000000E+00
  1453 0.00000000E+00
  1454 0.00000000E+00
  1455 0.00000000E+00
  1456 0.00000000E+00
  1457 0.00000000E+00
  1458 0.00000000E+00
  1459 0.00000000E+00
  1460 0.00000000E+00
  1461 0.00000000E+00
  1464 0.00000000E+00
  1465 0.00000000E+00
  1468 0.00000000E+00
  1469 0.00000000E+00
  1470 0.00000000E+00
  1471 0.00000000E+00
  1472 0.00000000E+00
  1473 0.00000000E+00
  1474 0.00000000E+00
  1475 0.00000000E+00
  1476 0.00000000E+00
  1477 0.00000000E+00
  1478 0.00000000E+00
  1479 0.00000000E+00
  1480 0.00000000E+00
  1481 0.00000000E+00
  1482 0.00000000E+00
  1483 0.00000000E+00
  1484 0.00000000E+00
  1485 0.00000000E+00
  1486 0.00000000E+00
  1488 0.00000000E+00
  1489 0.00000000E+00
  1490 0.00000000E+00
  1491 0.00000000E+00
  1492 0.00000000E+00
  1493 0.00000000E+00
  1494 0.00000000E+00
  1495 0.00000000E+00
  1504 0.00000000E+00
  1689 0.00000000E+00
  1694 0.00000000E+00
  1712 0.00000000E+00
  1713 0.00000000E+00
  1714 0.00000000E+00
  1715 0.00000000E+00
  1716 0.00000000E+00
  1717 0.00000000E+00
  1718 0.00000000E+00
  1719 0.00000000E+00
  1720 0.00000000E+00
  1721 0.00000000E+00
  1722 0.00000000E+00
  1723 0.00000000E+00
  1724 0.00000000E+00
  1725 0.00000000E+00
  1726 0.00000000E+00
  1727 0.00000000E+00
  1728 0.00000000E+00
  1729 0.00000000E+00
  1730 0.00000000E+00
  1731 0.00000000E+00
  1732 0.00000000E+00
  1733 0.00000000E+00
  1734 0.00000000E+00
  1735 0.00000000E+00
  1736 0.00000000E+00
  1737 0.00000000E+00
  1738 0.00000000E+00
  1739 0.00000000E+00
  1740 0.00000000E+00
  1741 0.00000000E+00
  1742 0.00000000E+00
  1743 0.00000000E+00
  1744 0.00000000E+00
  1745 0.00000000E+00
  1746 0.00000000E+00
  1747 0.00000000E+00
  1749 0.00000000E+00
  1750 0.00000000E+00
  1751 0.00000000E+00
  1757 0.00000000E+00
  1947 0.00000000E+00
  1948 0.00000000E+00
  1949 0.00000000E+00
  1950 0.00000000E+00
  1951 0.00000000E+00
  1952 0.00000000E+00
  1953 0.00000000E+00
  1954 0.00000000E+00
  1955 0.00000000E+00
  1956 0.00000000E+00
  1957 0.00000000E+00
  1958 0.00000000E+00
  1959 0.00000000E+00
  1960 0.00000000E+00
  1961 0.00000000E+00
  1962 0.00000000E+00
  1963 0.00000000E+00
  1964 0.00000000E+00
  1965 0.00000000E+00
  1966 0.00000000E+00
  1967 0.00000000E+00
  1968 0.00000000E+00
  1969 0.00000000E+00
  1970 0.00000000E+00
  1971 0.00000000E+00
  1972 0.00000000E+00
  1973 0.00000000E+00
  1976 0.00000000E+00
  1977 0.00000000E+00
  1978 0.00000000E+00
  1979 0.00000000E+00
  1980 0.00000000E+00
  1981 0.00000000E+00
  1982 0.00000000E+00
  1983 0.00000000E+00
  1984 0.00000000E+00
  1985 0.00000000E+00
  1988 0.00000000E+00
  1992 0.00000000E+00
  1993 0.00000000E+00
  1994 0.00000000E+00
  1995 0.00000000E+00
  1996 0.00000000E+00
  1997 0.00000000E+00
  2008 0.00000000E+00
  2009 0.00000000E+00
  2204 0.00000000E+00
  2205 0.00000000E+00
  2206 0.00000000E+00
  2207 0.00000000E+00
  2208 0.00000000E+00
  2209 0.00000000E+00
  2210 0.00000000E+00
  2211 0.00000000E+00
  2212 0.00000000E+00
  2213 0.00000000E+00
  2214 0.00000000E+00
  2215 0.00000000E+00
  2216 0.00000000E+00
  2217 0.00000000E+00
  2218 0.00000000E+00
  2219 0.00000000E+00
  2220 0.00000000E+00
  2221 0.00000000E+00
  2222 0.00000000E+00
  2223 0.00000000E+00
  2224 0.00000000E+00
  2225 0.00000000E+00
  2226 0.00000000E+00
  2227 0.00000000E+00
  2228 0.00000000E+00
  2229 0.00000000E+00
  2230 0.00000000E+00
  2231 0.00000000E+00
  2232 0.00000000E+00
  2233 0.00000000E+00
  2234 0.00000000E+00
  2235 0.00000000E+00
  2236 0.00000000E+00
  2237 0.00000000E+00
  2238 0.00000000E+00
  2239 0.00000000E+00
  2240 0.00000000E+00
  2241 0.00000000E+00
  2242 0.00000000E+00
  2243 0.00000000E+00
  2244 0.00000000E+00
  2245 0.00000000E+00
  2246 0.00000000E+00
  2247 0.00000000E+00
  2248 0.00000000E+00
  2249 0.00000000E+00
  2250 0.00000000E+00
  2251 0.00000000E+00
  2252 0.00000000E+00
  2253 0.00000000E+00
  2254 0.00000000E+00
  2255 0.00000000E+00
  2256 0.00000000E+00
  2257 0.00000000E+00
  2258 0.00000000E+00
  2259 0.00000000E+00
  2266 0.00000000E+00
  2267 0.00000000E+00
  2268 0.00000000E+00
  2269 0.00000000E+00
  2270 0.00000000E+00
  2271 0.00000000E+00
  2272 0.00000000E+00
  2273 0.00000000E+00
  2282 0.00000000E+00
  2283 0.00000000E+00
  2284 0.00000000E+00
  2285 0.00000000E+00
  2286 0.00000000E+00
  2287 0.00000000E+00
  2288 0.00000000E+00
  2518 0.00000000E+00
  2519 0.00000000E+00
  2520 0.00000000E+00
  2521 0.00000000E+00
  2522 0.00000000E+00
  2523 0.00000000E+00
  2524 0.00000000E+00
  2525 0.00000000E+00
  2526 0.00000000E+00
  2527 0.00000000E+00
  2528 0.00000000E+00
  2529 0.00000000E+00
  2530 0.00000000E+00
  2531 0.00000000E+00
  2532 0.00000000E+00
  2533 0.00000000E+00
  2534 0.00000000E+00
  2535 0.00000000E+00
  2536 0.00000000E+00
  2537 0.00000000E+00
  2538 0.00000000E+00
  2539 0.00000000E+00
  2540 0.00000000E+00
  2541 0.00000000E+00
  2542 0.00000000E+00
  2543 0.00000000E+00
  2544 0.00000000E+00
  2545 0.00000000E+00
  2546 0.00000000E+00
  2547 0.00000000E+00
  2548 0.00000000E+00
  2549 0.00000000E+00
  2550 0.00000000E+00
  2551 0.00000000E+00
  2552 0.00000000E+00
  2553 0.00000000E+00
  2554 0.00000000E+00
  2555 0.00000000E+00
  2556 0.00000000E+00
  2557 0.00000000E+00
  2558 0.00000000E+00
  2559 0.00000000E+00
  2560 0.00000000E+00
  2561 0.00000000E+00
  2562 0.00000000E+00
  2563 0.00000000E+00
  2564 0.00000000E+00
  2565 0.00000000E+00
  2566 0.00000000E+00
  2567 0.00000000E+00
  2568 0.00000000E+00
  2569 0.00000000E+00
  2570 0.00000000E+00
  2571 0.00000000E+00
  2572 0.00000000E+00
  2573 0.00000000E+00
  2574 0.00000000E+00
  2575 0.00000000E+00
  2576 0.00000000E+00
  2577 0.00000000E+00
  2578 0.00000000E+00
  2579 0.00000000E+00
  2580 0.00000000E+00
  2581 0.00000000E+00
  2582 0.00000000E+00
  2583 0.00000000E+00
  2584 0.00000000E+00
  2585 0.00000000E+00
  2586 0.00000000E+00
  2587 0.00000000E+00
  2588 0.00000000E+00
  2589 0.00000000E+00
  2590 0.00000000E+00
  2591 0.00000000E+00
  2592 0.00000000E+00
  2593 0.00000000E+00
  2594 0.00000000E+00
  2595 0.00000000E+00
  2596 0.00000000E+00
  2597 0.00000000E+00
  2598 0.00000000E+00
  2599 0.00000000E+00
  2600 0.00000000E+00
  2601 0.00000000E+00
  2602 0.00000000E+00
  2603 0.00000000E+00
  2604 0.00000000E+00
  2605 0.00000000E+00
  2606 0.00000000E+00
  2607 0.00000000E+00
  2608 0.00000000E+00
  2609 0.00000000E+00
  2610 0.00000000E+00
  2611 0.00000000E+00
  2612 0.00000000E+00
  2613 0.00000000E+00
  2614 0.00000000E+00
  2615 0.00000000E+00
  2617 0.00000000E+00
  2618 0.00000000E+00
  2621 0.00000000E+00
  2622 0.00000000E+00
  2623 0.00000000E+00
  2624 0.00000000E+00
  2625 0.00000000E+00
  2626 0.00000000E+00
  2627 0.00000000E+00
  2628 0.00000000E+00
  2629 0.00000000E+00
  2630 0.00000000E+00
  2633 0.00000000E+00
  2637 0.00000000E+00
  2638 0.00000000E+00
  2639 0.00000000E+00
  2640 0.00000000E+00
  2641 0.00000000E+00
  2642 0.00000000E+00
  2643 0.00000000E+00
  2650 0.00000000E+00
  2651 0.00000000E+00
  2654 0.00000000E+00
  2871 0.00000000E+00
  2872 0.00000000E+00
  2873 0.00000000E+00
  2874 0.00000000E+00
  2875 0.00000000E+00
  2876 0.00000000E+00
  2877 0.00000000E+00
  2878 0.00000000E+00
  2879 0.00000000E+00
  2880 0.00000000E+00
  2881 0.00000000E+00
  2882 0.00000000E+00
  2883 0.00000000E+00
  2884 0.00000000E+00
  2885 0.00000000E+00
  2886 0.00000000E+00
  2887 0.00000000E+00
  2888 0.00000000E+00
  2889 0.00000000E+00
  2890 0.00000000E+00
  2891 0.00000000E+00
  2892 0.00000000E+00
  2893 0.00000000E+00
  2894 0.00000000E+00
  2895 0.00000000E+00
  2896 0.00000000E+00
  2897 0.00000000E+00
  2898 0.00000000E+00
  2899 0.00000000E+00
  2900 0.00000000E+00
  2901 0.00000000E+00
  2902 0.00000000E+00
  2903 0.00000000E+00
  2904 0.00000000E+00
  2905 0.00000000E+00
  2906 0.00000000E+00
  2907 0.00000000E+00
  2908 0.00000000E+00
  2909 0.00000000E+00
  2910 0.00000000E+00
  2911 0.00000000E+00
  2912 0.00000000E+00
  2913 0.00000000E+00
  2914 0.00000000E+00
  2915 0.00000000E+00
  2916 0.00000000E+00
  2917 0.00000000E+00
  2918 0.00000000E+00
  2919 0.00000000E+00
  2920 0.00000000E+00
  2921 0.00000000E+00
  2922 0.00000000E+00
  2923 0.00000000E+00
  2924 0.00000000E+00
  2925 0.00000000E+00
  2926 0.00000000E+00
  2927 0.00000000E+00
  2928 0.00000000E+00
  2929 0.00000000E+00
  2930 0.00000000E+00
  2931 0.00000000E+00
  2932 0.00000000E+00
  2933 0.00000000E+00
  2934 0.00000000E+00
  2935 0.00000000E+00
  2936 0.00000000E+00
  2937 0.00000000E+00
  2938 0.00000000E+00
  2939 0.00000000E+00
  2940 0.00000000E+00
  2941 0.00000000E+00
  2942 0.00000000E+00
  2943 0.00000000E+00
  2944 0.00000000E+00
  2945 0.00000000E+00
  2946 0.00000000E+00
  2947 0.00000000E+00
  2948 0.00000000E+00
  2949 0.00000000E+00
  2950 0.00000000E+00
  2951 0.00000000E+00
  2952 0.00000000E+00
  2953 0.00000000E+00
  2954 0.00000000E+00
  2955 0.00000000E+00
  2956 0.00000000E+00
  2957 0.00000000E+00
  2958 0.00000000E+00
  2959 0.00000000E+00
  2960 0.00000000E+00
  2961 0.00000000E+00
  2962 0.00000000E+00
  2963 0.00000000E+00
  2964 0.00000000E+00
  2965 0.00000000E+00
  2966 0.00000000E+00
  2967 0.00000000E+00
  2968 0.00000000E+00
  2969 0.00000000E+00
  2971 0.00000000E+00
  2972 0.00000000E+00
  2973 0.00000000E+00
  2979 0.00000000E+00
  2980 0.00000000E+00
  2983 0.00000000E+00
  2984 0.00000000E+00
  2989 0.00000000E+00
  2990 0.00000000E+00
  2999 0.00000000E+00
  3000 0.00000000E+00
  3001 0.00000000E+00
  3002 0.00000000E+00
  3003 0.00000000E+00
  3004 0.00000000E+00
  3005 0.00000000E+00
  3006 0.00000000E+00
  3015 0.00000000E+00
  3016 0.00000000E+00
  3017 0.00000000E+00
  3018 0.00000000E+00
  3019 0.00000000E+00
  3020 0.00000000E+00
  3021 0.00000000E+00
  3031 0.00000000E+00
  3032 0.00000000E+00
  3033 0.00000000E+00
  3034 0.00000000E+00
  3035 0.00000000E+00
  3036 0.00000000E+00
  3041 0.00000000E+00
  3042 0.00000000E+00
  3045 0.00000000E+00
  3046 0.00000000E+00
  3305 0.00000000E+00
  3306 0.00000000E+00
  3307 0.00000000E+00
  3308 0.00000000E+00
  3309 0.00000000E+00
  3310 0.00000000E+00
  3311 0.00000000E+00
  3312 0.00000000E+00
  3313 0.00000000E+00
  3314 0.00000000E+00
  3315 0.00000000E+00
  3316 0.00000000E+00
  3317 0.00000000E+00
  3318 0.00000000E+00
  3319 0.00000000E+00
  3320 0.00000000E+00
  3321 0.00000000E+00
  3322 0.00000000E+00
  3323 0.00000000E+00
  3324 0.00000000E+00
  3325 0.00000000E+00
  3326 0.00000000E+00
  3327 0.00000000E+00
  3328 0.00000000E+00
  3329 0.00000000E+00
  3330 0.00000000E+00
  3331 0.00000000E+00
  3332 0.00000000E+00
  3333 0.00000000E+00
  3334 0.00000000E+00
  3335 0.00000000E+00
  3336 0.00000000E+00
  3337 0.00000000E+00
  3338 0.00000000E+00
  3339 0.00000000E+00
  3340 0.00000000E+00
  3341 0.00000000E+00
  3342 0.00000000E+00
  3343 0.00000000E+00
  3344 0.00000000E+00
  3345 0.00000000E+00
  3346 0.00000000E+00
  3347 0.00000000E+00
  3348 0.00000000E+00
  3349 0.00000000E+00
  3350 0.00000000E+00
  3351 0.00000000E+00
  3352 0.00000000E+00
  3353 0.00000000E+00
  3354 0.00000000E+00
  3355 0.00000000E+00
  3356 0.00000000E+00
  3357 0.00000000E+00
  3358 0.00000000E+00
  3359 0.00000000E+00
  3360 0.00000000E+00
  3361 0.00000000E+00
  3362 0.00000000E+00
  3363 0.00000000E+00
  3364 0.00000000E+00
  3365 0.00000000E+00
  3366 0.00000000E+00
  3367 0.00000000E+00
  3368 0.00000000E+00
  3369 0.00000000E+00
  3370 0.00000000E+00
  3371 0.00000000E+00
  3372 0.00000000E+00
  3373 0.00000000E+00
  3374 0.00000000E+00
  3375 0.00000000E+00
  3376 0.00000000E+00
  3377 0.00000000E+00
  3378 0.00000000E+00
  3379 0.00000000E+00
  3380 0.00000000E+00
  3381 0.00000000E+00
  3382 0.00000000E+00
  3383 0.00000000E+00
  3384 0.00000000E+00
  3385 0.00000000E+00
  3386 0.00000000E+00
  3387 0.00000000E+00
  3388 0.00000000E+00
  3389 0.00000000E+00
  3390 0.00000000E+00
  3391 0.00000000E+00
  3392 0.00000000E+00
  3393 0.00000000E+00
  3394 0.00000000E+00
  3395 0.00000000E+00
  3396 0.00000000E+00
  3397 0.00000000E+00
  3398 0.00000000E+00
  3399 0.00000000E+00
  3400 0.00000000E+00
  3401 0.00000000E+00
  3402 0.00000000E+00
  3403 0.00000000E+00
  3404 0.00000000E+00
  3405 0.00000000E+00
  3408 0.00000000E+00
  3409 0.00000000E+00
  3410 0.00000000E+00
  3411 0.00000000E+00
  3412 0.00000000E+00
  3413 0.00000000E+00
  3414 0.00000000E+00
  3415 0.00000000E+00