# File generated by Flopy version 3.9.1 on 02/11/2026 at 08:33:58.
BEGIN options
  BUDGET  FILEOUT  quadtree_caseB.cbc
  HEAD  FILEOUT  quadtree_caseB.hds
END options

BEGIN period  1
  SAVE  head  last
  SAVE  budget  last
  PRINT  budget  last
END period  1

