# File generated by Flopy version 3.9.1 on 02/11/2026 at 08:33:57.
BEGIN options
  SAVE_FLOWS
END options

BEGIN dimensions
  MAXBOUND  31908
END dimensions

BEGIN period  1
  45171 -1.31617199E-02
  45225 -0.00000000E+00
  45227 -1.16993066E-02
  45228 -2.88095424E-01
  45229 -1.31617199E-02
  45283 -4.38723996E-03
  45284 -1.02368932E-02
  45285 -1.01637726E+00
  45286 -3.80227463E-02
  45339 -0.00000000E+00
  45340 -4.38723996E-03
  45341 -2.48610264E-02
  45342 -8.77447992E-03
  45391 -0.00000000E+00
  45392 -4.38723996E-03
  45393 -2.92482664E-03
  45394 -5.11844662E-02
  45395 -2.63234397E-02
  45396 -0.00000000E+00
  45442 -1.46241332E-03
  45443 -0.00000000E+00
  45444 -5.84965328E-03
  45445 -6.11288767E-01
  45446 -0.00000000E+00
  45447 -0.00000000E+00
  45484 -0.00000000E+00
  45486 -1.46241332E-03
  45487 -1.02368932E-02
  45488 -0.00000000E+00
  45489 -0.00000000E+00
  45490 -2.04737865E-02
  45491 -0.00000000E+00
  45492 -0.00000000E+00
  45524 -0.00000000E+00
  45525 -2.92482664E-03
  45526 -0.00000000E+00
  45528 -7.31206660E-03
  45529 -4.38723996E-03
  45530 -0.00000000E+00
  45531 -1.46241332E-03
  45532 -1.46241332E-03
  45533 -1.46241332E-03
  45534 -1.46241332E-03
  45566 -0.00000000E+00
  45567 -0.00000000E+00
  45568 -0.00000000E+00
  45569 -0.00000000E+00
  45570 -0.00000000E+00
  45571 -0.00000000E+00
  45572 -5.84965328E-03
  45573 -0.00000000E+00
  45574 -0.00000000E+00
  45606 -0.00000000E+00
  45607 -0.00000000E+00
  45608 -0.00000000E+00
  45609 -0.00000000E+00
  45610 -0.00000000E+00
  45611 -0.00000000E+00
  45612 -0.00000000E+00
  45613 -1.46241332E-03
  45614 -0.00000000E+00
  45616 -0.00000000E+00
  45645 -0.00000000E+00
  45646 -0.00000000E+00
  45647 -0.00000000E+00
  45648 -0.00000000E+00
  45649 -0.00000000E+00
  45650 -0.00000000E+00
  45651 -2.92482664E-02
  45652 -0.00000000E+00
  45654 -0.00000000E+00
  45679 -0.00000000E+00
  45680 -0.00000000E+00
  45681 -0.00000000E+00
  45682 -0.00000000E+00
  45683 -0.00000000E+00
  45684 -0.00000000E+00
  45685 -4.38723996E-03
  45686 -7.31206660E-03
  45712 -0.00000000E+00
  45713 -0.00000000E+00
  45714 -6.96108740E-01
  45715 -0.00000000E+00
  45716 -0.00000000E+00
  45717 -2.92482664E-03
  45718 -0.00000000E+00
  45719 -0.00000000E+00
  45743 -0.00000000E+00
  45744 -0.00000000E+00
  45745 -0.00000000E+00
  45747 -0.00000000E+00
  45748 -0.00000000E+00
  45749 -0.00000000E+00
  45750 -1.08218586E-01
  45773 -0.00000000E+00
  45774 -0.00000000E+00
  45775 -0.00000000E+00
  45802 -0.00000000E+00
  45803 -0.00000000E+00
  45831 -0.00000000E+00
  45832 -0.00000000E+00
  45860 -0.00000000E+00
  32442 -0.00000000E+00
  32443 -7.88928960E-04
  32524 -0.00000000E+00
  32530 -0.00000000E+00
  32531 -0.00000000E+00
  32532 -2.62976320E-04
  32533 -1.05190528E-03
  32534 -0.00000000E+00
  32535 -7.88928960E-04
  32536 -1.05190528E-03
  32537 -3.68166848E-03
  32578 -7.88928960E-04
  32579 -5.78547904E-03
  32580 -3.68166848E-03
  32581 -1.34117923E-02
  32582 -5.78547904E-03
  32583 -3.94464480E-03
  32584 -1.34117923E-02
  32585 -1.84083424E-03
  33294 -5.52250272E-03
  33304 -2.62976320E-04
  33311 -7.88928960E-04
  33319 -7.88928960E-04
  33320 -0.00000000E+00
  33327 -7.88928960E-04
  33328 -7.88928960E-04
  33330 -7.88928960E-04
  33331 -5.25952640E-04
  33332 -5.25952640E-04
  33333 -7.88928960E-04
  33334 -7.88928960E-04
  33335 -7.88928960E-04
  33336 -7.88928960E-04
  33337 -5.25952640E-04
  33338 -5.25952640E-04
  33339 -5.25952640E-04
  33340 -5.25952640E-04
  33341 -7.88928960E-04
  33342 -0.00000000E+00
  33343 -5.25952640E-04
  33344 -2.62976320E-04
  33345 -0.00000000E+00
  33346 -0.00000000E+00
  33347 -2.62976320E-04
  33348 -0.00000000E+00
  33349 -5.25952640E-04
  33350 -2.62976320E-04
  33351 -5.25952640E-04
  33352 -2.62976320E-04
  33353 -2.62976320E-04
  33354 -0.00000000E+00
  33355 -2.62976320E-04
  33356 -0.00000000E+00
  33362 -2.62976320E-04
  33364 -2.62976320E-04
  33367 -7.88928960E-04
  33369 -7.88928960E-04
  33370 -2.62976320E-04
  33371 -1.05190528E-03
  33372 -2.62976320E-04
  33373 -1.05190528E-03
  33374 -1.05190528E-03
  33375 -3.68166848E-03
  33376 -1.05190528E-03
  33377 -3.68166848E-03
  33378 -7.88928960E-04
  33379 -7.88928960E-04
  33380 -7.88928960E-04
  33381 -7.88928960E-04
  33382 -7.88928960E-04
  33383 -7.10036064E-03
  33384 -7.88928960E-04
  33385 -7.10036064E-03
  33386 -0.00000000E+00
  33387 -2.62976320E-04
  33388 -0.00000000E+00
  33389 -0.00000000E+00
  33390 -2.62976320E-04
  33391 -7.88928960E-04
  33392 -0.00000000E+00
  33393 -7.88928960E-04
  33394 -0.00000000E+00
  33395 -0.00000000E+00
  33396 -0.00000000E+00
  33397 -0.00000000E+00
  33398 -0.00000000E+00
  33399 -7.88928960E-04
  33400 -0.00000000E+00
  33401 -7.88928960E-04
  33402 -7.88928960E-04
  33403 -7.88928960E-04
  33404 -7.88928960E-04
  33405 -7.88928960E-04
  33406 -7.88928960E-04
  33407 -7.88928960E-04
  33408 -7.88928960E-04
  33409 -7.88928960E-04
  33410 -7.88928960E-04
  33411 -7.88928960E-04
  33412 -3.68166848E-03
  33413 -1.34117923E-02
  33414 -3.68166848E-03
  33415 -1.34117923E-02
  33416 -1.34117923E-02
  33417 -1.84083424E-03
  33418 -1.34117923E-02
  33419 -1.84083424E-03
  33420 -7.10036064E-03
  33421 -9.46714752E-03
  33422 -7.10036064E-03
  33423 -9.46714752E-03
  33424 -9.46714752E-03
  33425 -7.88928960E-04
  33426 -9.46714752E-03
  33427 -7.88928960E-04
  33444 -7.10036064E-03
  33445 -9.46714752E-03
  33446 -5.78547904E-03
  33447 -9.99310016E-03
  33448 -9.46714752E-03
  33449 -7.88928960E-04
  33450 -9.99310016E-03
  33451 -0.00000000E+00
  33452 -5.78547904E-03
  33453 -9.99310016E-03
  33454 -5.78547904E-03
  33455 -9.99310016E-03
  33456 -9.99310016E-03
  33457 -0.00000000E+00
  33458 -9.99310016E-03
  34121 -0.00000000E+00
  34122 -2.13010819E-02
  34123 -0.00000000E+00
  34124 -1.57785792E-03
  34125 -0.00000000E+00
  34127 -1.84083424E-03
  34128 -0.00000000E+00
  34129 -1.31488160E-03
  34130 -1.05190528E-03
  34131 -1.84083424E-03
  34132 -0.00000000E+00
  34133 -0.00000000E+00
  34134 -0.00000000E+00
  34135 -0.00000000E+00
  34136 -0.00000000E+00
  34137 -7.88928960E-04
  34138 -7.88928960E-04
  34139 -7.88928960E-04
  34140 -7.88928960E-04
  34141 -2.62976320E-04
  34142 -0.00000000E+00
  34143 -5.25952640E-04
  34144 -0.00000000E+00
  34145 -0.00000000E+00
  34146 -2.62976320E-04
  34147 -0.00000000E+00
  34148 -2.62976320E-04
  34149 -2.62976320E-04
  34150 -5.25952640E-04
  34151 -2.62976320E-04
  34152 -5.25952640E-04
  34153 -2.62976320E-04
  34154 -2.62976320E-04
  34155 -0.00000000E+00
  34156 -0.00000000E+00
  34157 -0.00000000E+00
  34158 -0.00000000E+00
  34159 -0.00000000E+00
  34160 -0.00000000E+00
  34161 -0.00000000E+00
  34162 -0.00000000E+00
  34163 -0.00000000E+00
  34164 -0.00000000E+00
  34165 -0.00000000E+00
  34166 -0.00000000E+00
  34167 -0.00000000E+00
  34168 -0.00000000E+00
  34169 -0.00000000E+00
  34170 -2.62976320E-04
  34171 -0.00000000E+00
  34172 -2.62976320E-04
  34173 -2.62976320E-04
  34174 -5.25952640E-04
  34175 -2.62976320E-04
  34176 -2.10381056E-03
  34177 -0.00000000E+00
  34178 -2.62976320E-04
  34179 -0.00000000E+00
  34180 -2.62976320E-04
  34181 -2.62976320E-04
  34182 -2.10381056E-03
  34183 -2.62976320E-04
  34185 -0.00000000E+00
  34186 -5.25952640E-04
  34187 -0.00000000E+00
  34188 -5.25952640E-04
  34189 -5.25952640E-04
  34190 -2.62976320E-04
  34191 -5.25952640E-04
  34192 -2.62976320E-04
  34193 -5.25952640E-04
  34194 -5.25952640E-04
  34195 -0.00000000E+00
  34196 -5.25952640E-04
  34197 -0.00000000E+00
  34198 -2.62976320E-04
  34199 -0.00000000E+00
  34200 -2.62976320E-04
  34201 -0.00000000E+00
  34202 -0.00000000E+00
  34203 -2.36678688E-03
  34204 -0.00000000E+00
  34205 -2.36678688E-03
  34206 -0.00000000E+00
  34207 -1.57785792E-03
  34208 -0.00000000E+00
  34209 -1.57785792E-03
  34210 -1.57785792E-03
  34211 -0.00000000E+00
  34212 -1.57785792E-03
  34213 -0.00000000E+00
  34214 -5.25952640E-04
  34215 -0.00000000E+00
  34216 -5.25952640E-04
  34217 -1.57785792E-03
  34218 -1.57785792E-03
  34219 -1.57785792E-03
  34220 -0.00000000E+00
  34221 -3.15571584E-03
  34222 -0.00000000E+00
  34223 -3.15571584E-03
  34224 -3.15571584E-03
  34225 -0.00000000E+00
  34226 -3.15571584E-03
  34228 -2.36678688E-03
  34229 -5.25952640E-04
  34230 -2.36678688E-03
  34231 -5.25952640E-04
  34232 -5.25952640E-04
  34234 -5.25952640E-04
  34236 -0.00000000E+00
  34237 -4.20762112E-03
  34238 -0.00000000E+00
  34239 -4.20762112E-03
  34240 -4.20762112E-03
  34242 -4.20762112E-03
  34254 -0.00000000E+00
  34255 -4.20762112E-03
  34256 -0.00000000E+00
  34257 -1.31488160E-03
  34258 -4.20762112E-03
  34260 -1.31488160E-03
  34262 -0.00000000E+00
  34263 -1.31488160E-03
  34266 -1.31488160E-03
  34702 -1.05190528E-03
  34703 -1.05190528E-03
  34704 -2.62976320E-03
  34705 -5.25952640E-04
  34706 -0.00000000E+00
  34707 -1.05190528E-03
  34708 -2.10381056E-03
  34709 -7.88928960E-04
  34710 -5.25952640E-04
  34711 -0.00000000E+00
  34712 -0.00000000E+00
  34713 -0.00000000E+00
  34714 -0.00000000E+00
  34715 -0.00000000E+00
  34716 -0.00000000E+00
  34717 -0.00000000E+00
  34718 -0.00000000E+00
  34719 -2.62976320E-04
  34720 -2.62976320E-04
  34721 -1.84083424E-03
  34722 -0.00000000E+00
  34723 -7.88928960E-04
  34724 -1.05190528E-03
  34725 -1.05190528E-03
  34726 -1.05190528E-03
  34727 -1.05190528E-03
  34728 -0.00000000E+00
  34729 -2.62976320E-04
  34730 -2.62976320E-04
  34731 -2.62976320E-04
  34732 -2.62976320E-04
  34733 -0.00000000E+00
  34734 -0.00000000E+00
  34735 -0.00000000E+00
  34736 -0.00000000E+00
  34737 -2.62976320E-04
  34738 -2.62976320E-04
  34739 -2.62976320E-04
  34740 -2.62976320E-04
  34741 -0.00000000E+00
  34742 -0.00000000E+00
  34743 -0.00000000E+00
  34744 -0.00000000E+00
  34745 -0.00000000E+00
  34746 -0.00000000E+00
  34747 -0.00000000E+00
  34748 -0.00000000E+00
  34749 -0.00000000E+00
  34750 -0.00000000E+00
  34751 -2.62976320E-04
  34752 -2.62976320E-04
  34753 -5.25952640E-04
  34754 -0.00000000E+00
  34756 -5.25952640E-04
  34758 -2.62976320E-04
  34759 -2.62976320E-04
  34760 -0.00000000E+00
  34761 -0.00000000E+00
  34762 -5.25952640E-04
  34763 -5.25952640E-04
  34764 -7.88928960E-04
  34765 -7.88928960E-04
  34766 -0.00000000E+00
  34767 -0.00000000E+00
  34768 -0.00000000E+00
  34769 -0.00000000E+00
  34770 -7.88928960E-04
  34771 -5.25952640E-04
  34772 -0.00000000E+00
  34773 -2.62976320E-04
  34774 -7.88928960E-04
  34783 -0.00000000E+00
  34785 -7.88928960E-04
  34786 -1.31488160E-03
  34787 -7.88928960E-04
  34788 -1.31488160E-03
  34789 -1.31488160E-03
  34791 -1.31488160E-03
  35241 -7.88928960E-04
  35242 -2.10381056E-03
  35243 -0.00000000E+00
  35244 -0.00000000E+00
  35245 -3.15571584E-03
  35246 -2.10381056E-03
  35247 -2.10381056E-03
  35248 -2.10381056E-03
  35249 -2.10381056E-03
  35250 -3.15571584E-03
  35251 -2.10381056E-03
  35252 -2.10381056E-03
  35253 -7.88928960E-04
  35254 -7.88928960E-04
  35255 -7.88928960E-04
  35256 -7.88928960E-04
  35257 -7.88928960E-04
  35258 -7.88928960E-04
  35259 -5.25952640E-04
  35260 -5.25952640E-04
  35261 -5.25952640E-04
  35262 -5.25952640E-04
  35263 -7.88928960E-04
  35264 -7.88928960E-04
  35265 -5.25952640E-04
  35266 -5.25952640E-04
  35267 -5.25952640E-04
  35268 -5.25952640E-04
  35269 -0.00000000E+00
  35270 -0.00000000E+00
  35271 -3.15571584E-03
  35272 -7.88928960E-04
  35273 -7.88928960E-04
  35274 -7.88928960E-04
  35275 -7.88928960E-04
  35276 -0.00000000E+00
  35277 -1.05190528E-03
  35278 -1.05190528E-03
  35279 -1.05190528E-03
  35280 -1.05190528E-03
  35281 -5.25952640E-04
  35282 -5.25952640E-04
  35283 -5.25952640E-04
  35284 -5.25952640E-04
  35285 -0.00000000E+00
  35286 -0.00000000E+00
  35287 -0.00000000E+00
  35288 -0.00000000E+00
  35289 -0.00000000E+00
  35290 -0.00000000E+00
  35291 -1.57785792E-03
  35292 -1.57785792E-03
  35293 -1.57785792E-03
  35294 -1.57785792E-03
  35295 -0.00000000E+00
  35296 -2.62976320E-04
  35297 -5.25952640E-04
  35298 -5.25952640E-04
  35299 -1.57785792E-03
  35300 -5.25952640E-04
  35301 -1.84083424E-03
  35302 -0.00000000E+00
  35304 -1.84083424E-03
  35310 -1.57785792E-03
  35311 -0.00000000E+00
  35312 -1.57785792E-03
  35313 -0.00000000E+00
  35314 -0.00000000E+00
  35318 -1.57785792E-03
  35319 -0.00000000E+00
  35320 -1.84083424E-03
  35829 -0.00000000E+00
  35830 -0.00000000E+00
  35832 -0.00000000E+00
  35833 -0.00000000E+00
  35835 -0.00000000E+00
  45238 -0.00000000E+00
  45239 -1.91228248E-03
  45240 -8.47778564E-02
  45295 -0.00000000E+00
  45296 -1.91228248E-03
  45297 -2.54970997E-03
  45350 -6.37427492E-04
  45352 -9.56141238E-03
  45353 -6.37427492E-03
  45404 -3.82456495E-03
  45405 -3.82456495E-03
  45406 -1.91228248E-03
  45407 -4.46199244E-03
  45408 -1.27485498E-03
  45455 -1.27485498E-03
  45456 -4.07953595E-02
  45457 -5.16316268E-02
  45458 -1.91228248E-03
  45499 -1.91228248E-02
  45500 -1.27485498E-03
  45501 -2.54970997E-03
  45502 -1.91228248E-03
  45503 -3.18713746E-03
  45543 -1.27485498E-03
  45544 -1.91228248E-03
  45584 -1.27485498E-03
  45585 -1.27485498E-03
  32424 -7.58003526E-03
  32425 -2.42561128E-03
  32426 -2.03144945E-02
  32427 -5.15442397E-03
  33277 -6.06402820E-04
  33278 -6.06402820E-04
  33279 -4.54802115E-03
  36816 -5.82408276E-03
  36817 -1.01921448E-02
  37422 -5.09607241E-02
  37423 -5.82408276E-03
  37888 -4.65926621E-02
  37889 -1.01921448E-02
  37891 -4.36806207E-03
  37900 -1.16481655E-02
  38278 -2.62083724E-02
  38279 -1.60162276E-01
  38280 -5.53287862E-02
  38281 -1.45602069E-03
  38282 -4.36806207E-03
  38677 -2.47523517E-02
  38678 -2.91204138E-03
  38679 -4.36806207E-03
  39162 -5.82408276E-03
  39163 -2.47523517E-02
  39164 -2.91204138E-03
  39165 -7.28010345E-03
  39615 -5.82408276E-03
  13825 -0.00000000E+00
  13827 -0.00000000E+00
  13828 -0.00000000E+00
  13830 -0.00000000E+00
  13831 -0.00000000E+00
  13832 -0.00000000E+00
  13833 -0.00000000E+00
  13835 -0.00000000E+00
  13836 -0.00000000E+00
  13837 -0.00000000E+00
  13838 -0.00000000E+00
  13839 -0.00000000E+00
  13840 -0.00000000E+00
  13841 -0.00000000E+00
  13842 -0.00000000E+00
  13843 -0.00000000E+00
  13844 -0.00000000E+00
  13845 -0.00000000E+00
  13846 -0.00000000E+00
  13847 -0.00000000E+00
  13848 -0.00000000E+00
  13849 -0.00000000E+00
  13852 -0.00000000E+00
  13853 -0.00000000E+00
  13855 -0.00000000E+00
  13856 -0.00000000E+00
  13857 -0.00000000E+00
  13858 -0.00000000E+00
  13860 -0.00000000E+00
  13861 -0.00000000E+00
  13864 -0.00000000E+00
  13865 -0.00000000E+00
  13866 -0.00000000E+00
  13867 -0.00000000E+00
  13868 -0.00000000E+00
  13869 -0.00000000E+00
  13870 -0.00000000E+00
  13871 -0.00000000E+00
  13872 -0.00000000E+00
  13873 -0.00000000E+00
  13874 -0.00000000E+00
  13875 -0.00000000E+00
  13876 -0.00000000E+00
  13877 -0.00000000E+00
  13878 -0.00000000E+00
  13879 -0.00000000E+00
  13880 -0.00000000E+00
  13881 -0.00000000E+00
  13882 -0.00000000E+00
  13883 -0.00000000E+00
  13884 -0.00000000E+00
  13885 -0.00000000E+00
  13886 -0.00000000E+00
  13887 -0.00000000E+00
  13888 -0.00000000E+00
  13889 -0.00000000E+00
  13890 -0.00000000E+00
  13891 -0.00000000E+00
  13892 -0.00000000E+00
  13893 -0.00000000E+00
  13894 -0.00000000E+00
  13895 -0.00000000E+00
  13896 -0.00000000E+00
  13897 -0.00000000E+00
  13899 -0.00000000E+00
  13900 -0.00000000E+00
  13903 -0.00000000E+00
  13904 -0.00000000E+00
  13905 -0.00000000E+00
  13906 -0.00000000E+00
  13907 -0.00000000E+00
  13908 -0.00000000E+00
  13909 -0.00000000E+00
  13910 -0.00000000E+00
  13911 -0.00000000E+00
  13912 -0.00000000E+00
  13913 -0.00000000E+00
  13914 -0.00000000E+00
  13915 -0.00000000E+00
  13916 -0.00000000E+00
  13917 -0.00000000E+00
  13918 -0.00000000E+00
  13919 -0.00000000E+00
  13921 -0.00000000E+00
  13922 -0.00000000E+00
  13924 -0.00000000E+00
  13925 -0.00000000E+00
  13926 -0.00000000E+00
  13927 -0.00000000E+00
  13928 -0.00000000E+00
  13929 -0.00000000E+00
  13930 -0.00000000E+00
  13931 -0.00000000E+00
  13932 -0.00000000E+00
  13933 -0.00000000E+00
  13936 -0.00000000E+00
  13937 -0.00000000E+00
  13938 -0.00000000E+00
  13939 -0.00000000E+00
  13940 -0.00000000E+00
  13941 -0.00000000E+00
  13942 -0.00000000E+00
  13943 -0.00000000E+00
  13946 -0.00000000E+00
  13947 -0.00000000E+00
  13950 -0.00000000E+00
  13951 -0.00000000E+00
  13952 -0.00000000E+00
  13953 -0.00000000E+00
  13954 -0.00000000E+00
  13987 -0.00000000E+00
  13988 -0.00000000E+00
  13993 -0.00000000E+00
  13994 -0.00000000E+00
  13995 -0.00000000E+00
  13996 -0.00000000E+00
  14017 -0.00000000E+00
  14018 -0.00000000E+00
  14019 -0.00000000E+00
  14020 -0.00000000E+00
  14025 -0.00000000E+00
  14026 -0.00000000E+00
  14027 -0.00000000E+00
  14028 -0.00000000E+00
  14030 -0.00000000E+00
  14031 -0.00000000E+00
  14032 -0.00000000E+00
  14033 -0.00000000E+00
  14034 -0.00000000E+00
  14035 -0.00000000E+00
  14036 -0.00000000E+00
  14037 -0.00000000E+00
  14038 -0.00000000E+00
  14039 -0.00000000E+00
  14040 -0.00000000E+00
  14041 -0.00000000E+00
  14042 -0.00000000E+00
  14043 -0.00000000E+00
  14044 -0.00000000E+00
  14045 -0.00000000E+00
  14046 -0.00000000E+00
  14047 -0.00000000E+00
  14048 -0.00000000E+00
  14049 -0.00000000E+00
  14050 -0.00000000E+00
  14051 -2.81517053E-04
  14052 -2.81517053E-04
  14053 -0.00000000E+00
  14054 -2.81517053E-04
  14055 -0.00000000E+00
  14056 -0.00000000E+00
  14057 -2.81517053E-04
  14058 -2.81517053E-04
  14059 -2.81517053E-04
  14060 -2.81517053E-04
  14061 -0.00000000E+00
  14062 -0.00000000E+00
  14063 -0.00000000E+00
  14064 -0.00000000E+00
  14065 -0.00000000E+00
  14066 -0.00000000E+00
  14067 -0.00000000E+00
  14068 -0.00000000E+00
  14069 -0.00000000E+00
  14070 -0.00000000E+00
  14071 -0.00000000E+00
  14072 -0.00000000E+00
  14073 -0.00000000E+00
  14074 -0.00000000E+00
  14075 -0.00000000E+00
  14076 -0.00000000E+00
  14077 -0.00000000E+00
  14078 -0.00000000E+00
  14079 -0.00000000E+00
  14080 -0.00000000E+00
  14081 -0.00000000E+00
  14082 -2.81517053E-04
  14083 -0.00000000E+00
  14084 -5.63034106E-05
  14085 -0.00000000E+00
  14086 -0.00000000E+00
  14087 -0.00000000E+00
  14088 -0.00000000E+00
  14089 -0.00000000E+00
  14090 -5.63034106E-05
  14091 -0.00000000E+00
  14092 -5.63034106E-05
  14093 -0.00000000E+00
  14094 -0.00000000E+00
  14095 -2.81517053E-04
  14096 -0.00000000E+00
  14097 -0.00000000E+00
  14098 -0.00000000E+00
  14099 -0.00000000E+00
  14100 -0.00000000E+00
  14101 -2.81517053E-04
  14102 -0.00000000E+00
  14103 -2.81517053E-04
  14104 -0.00000000E+00
  14105 -0.00000000E+00
  14106 -0.00000000E+00
  14107 -0.00000000E+00
  14108 -0.00000000E+00
  14109 -0.00000000E+00
  14110 -0.00000000E+00
  14111 -0.00000000E+00
  14112 -0.00000000E+00
  14113 -0.00000000E+00
  14114 -0.00000000E+00
  14115 -0.00000000E+00
  14116 -0.00000000E+00
  14117 -0.00000000E+00
  14118 -3.75356071E-05
  14119 -0.00000000E+00
  14120 -3.75356071E-05
  14121 -3.75356071E-05
  14122 -3.75356071E-05
  14123 -3.75356071E-05
  14124 -3.75356071E-05
  14125 -2.81517053E-04
  14126 -0.00000000E+00
  14127 -5.63034106E-05
  14128 -0.00000000E+00
  14129 -0.00000000E+00
  14130 -0.00000000E+00
  14131 -0.00000000E+00
  14132 -0.00000000E+00
  14133 -5.63034106E-05
  14134 -0.00000000E+00
  14135 -5.63034106E-05
  14136 -0.00000000E+00
  14137 -0.00000000E+00
  14138 -0.00000000E+00
  14139 -0.00000000E+00
  14140 -0.00000000E+00
  14141 -0.00000000E+00
  14142 -3.75356071E-05
  14143 -0.00000000E+00
  14144 -1.87678035E-05
  14145 -3.75356071E-05
  14146 -3.75356071E-05
  14147 -1.87678035E-05
  14148 -1.87678035E-05
  14149 -0.00000000E+00
  14150 -1.87678035E-05
  14151 -0.00000000E+00
  14152 -1.87678035E-05
  14153 -1.87678035E-05
  14154 -0.00000000E+00
  14155 -0.00000000E+00
  14156 -0.00000000E+00
  14157 -0.00000000E+00
  14158 -0.00000000E+00
  14159 -0.00000000E+00
  14160 -0.00000000E+00
  14161 -0.00000000E+00
  14162 -0.00000000E+00
  14163 -0.00000000E+00
  14164 -0.00000000E+00
  14165 -0.00000000E+00
  14166 -0.00000000E+00
  14167 -0.00000000E+00
  14168 -0.00000000E+00
  14169 -0.00000000E+00
  14170 -0.00000000E+00
  14171 -0.00000000E+00
  14172 -0.00000000E+00
  14173 -0.00000000E+00
  14174 -0.00000000E+00
  14175 -0.00000000E+00
  14176 -0.00000000E+00
  14177 -0.00000000E+00
  14178 -0.00000000E+00
  14179 -0.00000000E+00
  14180 -0.00000000E+00
  14181 -0.00000000E+00
  14182 -0.00000000E+00
  14183 -0.00000000E+00
  14184 -0.00000000E+00
  14185 -0.00000000E+00
  14186 -0.00000000E+00
  14187 -0.00000000E+00
  14188 -0.00000000E+00
  14189 -0.00000000E+00
  14190 -0.00000000E+00
  14191 -0.00000000E+00
  14192 -7.50712141E-05
  14193 -7.50712141E-05
  14194 -0.00000000E+00
  14195 -7.50712141E-05
  14196 -7.50712141E-05
  14197 -7.50712141E-05
  14198 -7.50712141E-05
  14199 -0.00000000E+00
  14200 -0.00000000E+00
  14201 -1.87678035E-05
  14202 -1.87678035E-05
  14203 -0.00000000E+00
  14204 -0.00000000E+00
  14205 -0.00000000E+00
  14206 -0.00000000E+00
  14207 -1.87678035E-05
  14208 -1.87678035E-05
  14209 -1.87678035E-05
  14210 -1.87678035E-05
  14211 -0.00000000E+00
  14212 -0.00000000E+00
  14213 -0.00000000E+00
  14214 -0.00000000E+00
  14215 -0.00000000E+00
  14216 -0.00000000E+00
  14217 -0.00000000E+00
  14218 -0.00000000E+00
  14219 -0.00000000E+00
  14220 -0.00000000E+00
  14221 -0.00000000E+00
  14222 -0.00000000E+00
  14223 -0.00000000E+00
  14224 -0.00000000E+00
  14225 -0.00000000E+00
  14226 -0.00000000E+00
  14227 -0.00000000E+00
  14228 -0.00000000E+00
  14229 -0.00000000E+00
  14230 -0.00000000E+00
  14231 -0.00000000E+00
  14232 -0.00000000E+00
  14233 -0.00000000E+00
  14234 -0.00000000E+00
  14235 -0.00000000E+00
  14236 -0.00000000E+00
  14237 -0.00000000E+00
  14238 -0.00000000E+00
  14239 -0.00000000E+00
  14240 -0.00000000E+00
  14241 -0.00000000E+00
  14242 -0.00000000E+00
  14243 -0.00000000E+00
  14244 -0.00000000E+00
  14245 -0.00000000E+00
  14246 -0.00000000E+00
  14247 -0.00000000E+00
  14248 -0.00000000E+00
  14249 -0.00000000E+00
  14250 -0.00000000E+00
  14251 -0.00000000E+00
  14252 -0.00000000E+00
  14253 -5.63034106E-05
  14254 -5.63034106E-05
  14255 -0.00000000E+00
  14256 -0.00000000E+00
  14257 -0.00000000E+00
  14258 -0.00000000E+00
  14259 -5.63034106E-05
  14260 -5.63034106E-05
  14261 -5.63034106E-05
  14262 -5.63034106E-05
  14263 -0.00000000E+00
  14264 -0.00000000E+00
  14265 -0.00000000E+00
  14266 -0.00000000E+00
  14267 -0.00000000E+00
  14268 -0.00000000E+00
  14269 -0.00000000E+00
  14270 -0.00000000E+00
  14271 -0.00000000E+00
  14272 -0.00000000E+00
  14273 -0.00000000E+00
  14274 -0.00000000E+00
  14275 -0.00000000E+00
  14276 -0.00000000E+00
  14277 -0.00000000E+00
  14278 -0.00000000E+00
  14279 -0.00000000E+00
  14280 -0.00000000E+00
  14281 -0.00000000E+00
  14282 -0.00000000E+00
  14283 -0.00000000E+00
  14284 -0.00000000E+00
  14285 -0.00000000E+00
  14286 -0.00000000E+00
  14287 -3.75356071E-05
  14288 -3.75356071E-05
  14289 -3.75356071E-05
  14290 -3.75356071E-05
  14291 -3.75356071E-05
  14292 -0.00000000E+00
  14293 -3.75356071E-05
  14294 -0.00000000E+00
  14295 -0.00000000E+00
  14296 -0.00000000E+00
  14297 -0.00000000E+00
  14298 -0.00000000E+00
  14299 -0.00000000E+00
  14300 -0.00000000E+00
  14301 -0.00000000E+00
  14302 -0.00000000E+00
  14303 -0.00000000E+00
  14304 -0.00000000E+00
  14305 -0.00000000E+00
  14306 -0.00000000E+00
  14307 -0.00000000E+00
  14308 -0.00000000E+00
  14309 -0.00000000E+00
  14310 -0.00000000E+00
  14311 -3.75356071E-05
  14312 -3.75356071E-05
  14313 -0.00000000E+00
  14314 -0.00000000E+00
  14315 -3.75356071E-05
  14316 -0.00000000E+00
  14317 -0.00000000E+00
  14318 -0.00000000E+00
  14319 -0.00000000E+00
  14320 -0.00000000E+00
  14321 -0.00000000E+00
  14322 -0.00000000E+00
  14323 -0.00000000E+00
  14324 -0.00000000E+00
  14325 -0.00000000E+00
  14326 -0.00000000E+00
  14327 -0.00000000E+00
  14328 -0.00000000E+00
  14329 -0.00000000E+00
  14330 -0.00000000E+00
  14331 -0.00000000E+00
  14332 -0.00000000E+00
  14333 -0.00000000E+00
  14334 -0.00000000E+00
  14335 -0.00000000E+00
  14336 -0.00000000E+00
  14337 -0.00000000E+00
  14338 -0.00000000E+00
  14339 -0.00000000E+00
  14340 -0.00000000E+00
  14341 -0.00000000E+00
  14342 -0.00000000E+00
  14343 -0.00000000E+00
  14344 -7.50712141E-05
  14345 -0.00000000E+00
  14346 -7.50712141E-05
  14347 -7.50712141E-05
  14348 -5.06730695E-04
  14349 -7.50712141E-05
  14350 -5.06730695E-04
  14351 -0.00000000E+00
  14352 -0.00000000E+00
  14353 -0.00000000E+00
  14354 -0.00000000E+00
  14355 -0.00000000E+00
  14356 -0.00000000E+00
  14357 -0.00000000E+00
  14358 -0.00000000E+00
  14359 -5.06730695E-04
  14360 -2.15829741E-03
  14361 -5.06730695E-04
  14362 -2.15829741E-03
  14363 -2.15829741E-03
  14364 -5.29252059E-03
  14365 -2.15829741E-03
  14366 -5.29252059E-03
  14367 -0.00000000E+00
  14368 -0.00000000E+00
  14369 -0.00000000E+00
  14370 -0.00000000E+00
  14371 -0.00000000E+00
  14372 -0.00000000E+00
  14373 -0.00000000E+00
  14374 -0.00000000E+00
  14375 -0.00000000E+00
  14376 -0.00000000E+00
  14377 -0.00000000E+00
  14378 -0.00000000E+00
  14379 -0.00000000E+00
  14380 -0.00000000E+00
  14381 -0.00000000E+00
  14382 -0.00000000E+00
  14383 -0.00000000E+00
  14384 -0.00000000E+00
  14385 -0.00000000E+00
  14386 -0.00000000E+00
  14387 -0.00000000E+00
  14388 -0.00000000E+00
  14389 -0.00000000E+00
  14390 -0.00000000E+00
  14391 -0.00000000E+00
  14392 -0.00000000E+00
  14393 -0.00000000E+00
  14394 -0.00000000E+00
  14395 -0.00000000E+00
  14396 -0.00000000E+00
  14397 -0.00000000E+00
  14398 -0.00000000E+00
  14399 -0.00000000E+00
  14400 -0.00000000E+00
  14401 -0.00000000E+00
  14402 -0.00000000E+00
  14403 -0.00000000E+00
  14404 -0.00000000E+00
  14405 -0.00000000E+00
  14406 -0.00000000E+00
  14407 -5.29252059E-03
  14408 -0.00000000E+00
  14409 -5.29252059E-03
  14410 -0.00000000E+00
  14411 -0.00000000E+00
  14412 -0.00000000E+00
  14413 -0.00000000E+00
  14414 -0.00000000E+00
  14415 -0.00000000E+00
  14416 -0.00000000E+00
  14417 -0.00000000E+00
  14418 -0.00000000E+00
  14419 -0.00000000E+00
  14420 -0.00000000E+00
  14421 -0.00000000E+00
  14422 -0.00000000E+00
  14423 -0.00000000E+00
  14424 -0.00000000E+00
  14425 -0.00000000E+00
  14426 -0.00000000E+00
  14427 -0.00000000E+00
  14428 -0.00000000E+00
  14429 -0.00000000E+00
  14430 -0.00000000E+00
  14431 -0.00000000E+00
  14432 -0.00000000E+00
  14433 -0.00000000E+00
  14434 -0.00000000E+00
  14435 -0.00000000E+00
  14436 -0.00000000E+00
  14437 -0.00000000E+00
  14438 -0.00000000E+00
  14439 -0.00000000E+00
  14440 -0.00000000E+00
  14441 -0.00000000E+00
  14442 -0.00000000E+00
  14443 -0.00000000E+00
  14444 -0.00000000E+00
  14445 -0.00000000E+00
  14446 -0.00000000E+00
  14447 -0.00000000E+00
  14448 -0.00000000E+00
  14449 -0.00000000E+00
  14450 -0.00000000E+00
  14451 -0.00000000E+00
  14452 -0.00000000E+00
  14453 -0.00000000E+00
  14454 -0.00000000E+00
  14455 -0.00000000E+00
  14456 -0.00000000E+00
  14457 -0.00000000E+00
  14458 -0.00000000E+00
  14459 -0.00000000E+00
  14460 -0.00000000E+00
  14461 -0.00000000E+00
  14462 -0.00000000E+00
  14463 -0.00000000E+00
  14464 -0.00000000E+00
  14465 -0.00000000E+00
  14466 -0.00000000E+00
  14467 -0.00000000E+00
  14468 -0.00000000E+00
  14469 -0.00000000E+00
  14470 -0.00000000E+00
  14473 -0.00000000E+00
  14474 -0.00000000E+00
  14477 -0.00000000E+00
  14478 -0.00000000E+00
  14479 -0.00000000E+00
  14480 -0.00000000E+00
  14481 -0.00000000E+00
  14482 -0.00000000E+00
  14483 -0.00000000E+00
  14484 -0.00000000E+00
  14487 -0.00000000E+00
  14488 -0.00000000E+00
  14490 -0.00000000E+00
  14491 -0.00000000E+00
  14492 -0.00000000E+00
  14493 -0.00000000E+00
  14494 -0.00000000E+00
  14495 -0.00000000E+00
  14496 -0.00000000E+00
  14497 -0.00000000E+00
  14498 -0.00000000E+00
  14499 -0.00000000E+00
  14500 -0.00000000E+00
  14501 -0.00000000E+00
  14502 -0.00000000E+00
  14503 -0.00000000E+00
  14504 -0.00000000E+00
  14505 -0.00000000E+00
  14506 -0.00000000E+00
  14507 -0.00000000E+00
  14508 -0.00000000E+00
  14509 -0.00000000E+00
  14510 -0.00000000E+00
  14511 -0.00000000E+00
  14512 -0.00000000E+00
  14513 -0.00000000E+00
  14514 -0.00000000E+00
  14515 -0.00000000E+00
  14516 -0.00000000E+00
  14517 -0.00000000E+00
  14518 -0.00000000E+00
  14519 -0.00000000E+00
  14520 -0.00000000E+00
  14521 -0.00000000E+00
  14523 -0.00000000E+00
  14526 -0.00000000E+00
  14527 -0.00000000E+00
  14528 -0.00000000E+00
  14529 -0.00000000E+00
  14530 -0.00000000E+00
  14531 -0.00000000E+00
  14532 -0.00000000E+00
  14533 -0.00000000E+00
  14535 -0.00000000E+00
  14536 -0.00000000E+00
  14656 -0.00000000E+00
  14657 -0.00000000E+00
  14658 -0.00000000E+00
  14659 -0.00000000E+00
  14664 -0.00000000E+00
  14665 -0.00000000E+00
  14666 -0.00000000E+00
  14667 -0.00000000E+00
  14688 -0.00000000E+00
  14689 -0.00000000E+00
  14690 -3.75356071E-05
  14691 -0.00000000E+00
  14696 -3.75356071E-05
  14697 -0.00000000E+00
  14698 -3.75356071E-05
  14699 -0.00000000E+00
  14700 -0.00000000E+00
  14701 -0.00000000E+00
  14702 -0.00000000E+00
  14703 -0.00000000E+00
  14704 -0.00000000E+00
  14705 -3.19052660E-04
  14706 -0.00000000E+00
  14707 -3.19052660E-04
  14708 -0.00000000E+00
  14709 -0.00000000E+00
  14710 -0.00000000E+00
  14711 -0.00000000E+00
  14712 -0.00000000E+00
  14713 -3.19052660E-04
  14714 -0.00000000E+00
  14715 -3.00284856E-04
  14716 -3.19052660E-04
  14717 -2.08322619E-03
  14718 -3.19052660E-04
  14719 -2.08322619E-03
  14720 -2.08322619E-03
  14721 -5.81801909E-04
  14722 -2.08322619E-03
  14723 -5.81801909E-04
  14724 -3.19052660E-04
  14725 -2.08322619E-03
  14726 -3.00284856E-04
  14727 -7.50712141E-05
  14728 -2.08322619E-03
  14729 -5.81801909E-04
  14730 -7.50712141E-05
  14731 -6.56873123E-04
  14732 -0.00000000E+00
  14733 -0.00000000E+00
  14734 -0.00000000E+00
  14735 -3.19052660E-04
  14736 -3.00284856E-04
  14737 -3.19052660E-04
  14738 -1.10730041E-03
  14739 -7.50712141E-05