# File generated by Flopy version 3.9.1 on 02/12/2026 at 09:38:22.
BEGIN options
END options

BEGIN timing
  TDIS6  triangle_caseA.tdis
END timing

BEGIN models
  gwf6  triangle_caseA.nam  triangle_casea
END models

BEGIN exchanges
END exchanges

BEGIN solutiongroup  1
  ims6  triangle_caseA.ims  triangle_casea
END solutiongroup  1

