# File generated by Flopy version 3.9.1 on 02/12/2026 at 09:38:22.
BEGIN options
  SAVE_FLOWS
END options

BEGIN packages
  disv6  triangle_caseA.disv  disv
  ic6  triangle_caseA.ic  ic
  chd6  triangle_caseA.chd  chd
  npf6  triangle_caseA.npf  npf
  wel6  triangle_caseA.wel  well_package
  rch6  triangle_caseA.rch  rch
  evt6  triangle_caseA.evt  evt
  oc6  triangle_caseA.oc  oc
END packages

