# File generated by Flopy version 3.9.1 on 01/24/2026 at 08:52:45.
BEGIN options
  BUDGET  FILEOUT  quadtree_caseD_1.cbc
  HEAD  FILEOUT  quadtree_caseD_1.hds
END options

BEGIN period  1
  SAVE  head  last
  SAVE  budget  last
  PRINT  budget  last
END period  1

