# File generated by Flopy version 3.9.1 on 01/24/2026 at 08:52:30.
BEGIN options
  SAVE_FLOWS
END options

BEGIN packages
  disu6  DISU_model.disu  disu
  ic6  DISU_model.ic  ic
  chd6  DISU_model.chd  chd
  npf6  DISU_model.npf  npf
  wel6  DISU_model.wel  well_cased_1
  rch6  quadtree_caseD_1.rch  rch
  evt6  DISU_model.evt  evt
  oc6  DISU_model.oc  oc
END packages

