# File generated by Flopy version 3.9.1 on 01/24/2026 at 08:52:44.
BEGIN options
  FIXED_CELL
  PRINT_FLOWS
  SAVE_FLOWS
END options

BEGIN dimensions
  MAXBOUND  21123
END dimensions

BEGIN period  1
  1 1.02371960E-08
  2 1.01959395E-08
  3 1.02219029E-08
  4 1.02595391E-08
  5 1.01469939E-08
  6 1.01454392E-08
  7 1.01014086E-08
  8 1.00657459E-08
  9 1.00189337E-08
  10 1.01865812E-08
  11 1.02094175E-08
  12 1.02635458E-08
  13 1.03469511E-08
  14 1.00914612E-08
  15 1.01159259E-08
  16 1.00083955E-08
  17 1.00344950E-08
  18 1.01737853E-08
  19 1.02627789E-08
  20 1.00960928E-08
  21 1.01906656E-08
  22 1.04566863E-08
  23 1.05891166E-08
  24 1.03796140E-08
  25 1.05202521E-08
  26 1.03145545E-08
  27 1.04632958E-08
  28 1.06802249E-08
  29 1.08549399E-08
  30 1.06319841E-08
  31 1.08156184E-08
  32 1.11133036E-08
  33 1.10794762E-08
  34 1.12914678E-08
  35 1.15055640E-08
  36 1.17183181E-08
  37 1.19269348E-08
  38 1.21292341E-08
  39 1.23235874E-08
  40 1.25088406E-08
  41 1.26842325E-08
  42 1.28493183E-08
  43 1.30038991E-08
  44 1.31243242E-08
  45 1.32577412E-08
  46 1.33810302E-08
  47 1.34944655E-08
  48 1.35983604E-08
  49 1.11354599E-08
  50 1.13942586E-08
  51 1.11688625E-08
  52 1.06971157E-08
  53 1.05231818E-08
  54 1.03528901E-08
  55 1.05013793E-08
  56 1.03233756E-08
  57 1.09151606E-08
  58 1.07008357E-08
  59 1.09438015E-08
  60 1.07240958E-08
  61 1.04981224E-08
  62 1.03132056E-08
  63 1.05156099E-08
  64 1.03248448E-08
  65 1.02056830E-08
  66 1.00868253E-08
  67 1.01690858E-08
  68 1.00442317E-08
  69 1.00008870E-08
  70 9.95133807E-09
  71 9.95381041E-09
  72 9.90163335E-09
  73 1.01524857E-08
  74 1.00221324E-08
  75 1.01585885E-08
  76 1.00234347E-08
  77 9.92756761E-09
  78 9.87294583E-09
  79 9.92521411E-09
  80 9.86841598E-09
  81 9.94021558E-09
  82 9.96792113E-09
  83 9.88994397E-09
  84 9.91918390E-09
  85 1.00331865E-08
  86 1.01332134E-08
  87 9.98795278E-09
  88 1.00931693E-08
  89 9.86071997E-09
  90 9.89137336E-09
  91 9.85569954E-09
  92 9.88759066E-09
  93 9.96337331E-09
  94 1.00733547E-08
  95 9.96242834E-09
  96 1.00765719E-08
  97 1.02639601E-08
  98 1.04205234E-08
  99 1.02304008E-08
  100 1.03942987E-08
  101 1.05975516E-08
  102 1.08449618E-08
  103 1.05790661E-08
  104 1.08324109E-08
  105 1.02164953E-08
  106 1.03870079E-08
  107 1.02248232E-08
  108 1.04009772E-08
  109 1.06194156E-08
  110 1.08379514E-08
  111 1.06392627E-08
  112 1.08633970E-08
  113 1.10592321E-08
  114 1.12791711E-08
  115 1.10542907E-08
  116 1.12812414E-08
  117 1.15004998E-08
  118 1.17196604E-08
  119 1.15088197E-08
  120 1.17333824E-08
  121 1.10663140E-08
  122 1.12990911E-08
  123 1.10968429E-08
  124 1.13340067E-08
  125 1.15317066E-08
  126 1.17604605E-08
  127 1.15702164E-08
  128 1.18017476E-08
  129 1.19338125E-08
  130 1.21407812E-08
  131 1.19520668E-08
  132 1.21627232E-08
  133 1.23389789E-08
  134 1.25273150E-08
  135 1.23638206E-08
  136 1.25543439E-08
  137 1.19824929E-08
  138 1.21956991E-08
  139 1.20257687E-08
  140 1.22402387E-08
  141 1.23986195E-08
  142 1.25903238E-08
  143 1.24437819E-08
  144 1.26355602E-08
  145 1.27051044E-08
  146 1.28719825E-08
  147 1.27336918E-08
  148 1.29015843E-08
  149 1.30278295E-08
  150 1.31495049E-08
  151 1.30355098E-08
  152 1.31802235E-08
  153 1.27702999E-08
  154 1.29383546E-08
  155 1.28151531E-08
  156 1.29824530E-08
  157 1.30724326E-08
  158 1.32166034E-08
  159 1.31158234E-08
  160 1.32587143E-08
  161 1.32833409E-08
  162 1.34067231E-08
  163 1.33138888E-08
  164 1.34368320E-08
  165 1.35199770E-08
  166 1.36234589E-08
  167 1.35494259E-08
  168 1.36520662E-08
  169 1.33494710E-08
  170 1.34714134E-08
  171 1.33901265E-08
  172 1.35104838E-08
  173 1.35828464E-08
  174 1.36841993E-08
  175 1.36202381E-08
  176 1.37198467E-08
  177 1.37175374E-08
  178 1.38025802E-08
  179 1.37451526E-08
  180 1.38290775E-08
  181 1.39042167E-08
  182 1.39709255E-08
  183 1.37758987E-08
  184 1.38583561E-08
  185 1.38097560E-08
  186 1.38903918E-08
  187 1.39319611E-08
  188 1.39970775E-08
  189 1.39621520E-08
  190 1.40254041E-08
  191 1.40540416E-08
  192 1.41031629E-08
  193 1.40804844E-08
  194 1.41276990E-08
  195 1.41673267E-08
  196 1.41996237E-08
  197 1.39778024E-08
  198 1.39704036E-08
  199 1.38893760E-08
  200 1.39594054E-08
  201 1.39089152E-08
  202 1.38668098E-08
  203 1.38389865E-08
  204 1.38893514E-08
  205 1.38646427E-08
  206 1.38053572E-08
  207 1.38342389E-08
  208 1.37975801E-08
  209 1.37540967E-08
  210 1.37032092E-08
  211 1.28473006E-08
  212 1.25190219E-08
  213 1.23351395E-08
  214 1.16713429E-08
  215 1.19569240E-08
  216 1.17422141E-08
  217 1.14481108E-08
  218 1.12203401E-08
  219 1.15191651E-08
  220 1.12908648E-08
  221 1.20409099E-08
  222 1.18288406E-08
  223 1.21388156E-08
  224 1.19312811E-08
  225 1.16079070E-08
  226 1.13811072E-08
  227 1.17145096E-08
  228 1.14913834E-08
  229 1.09921462E-08
  230 1.07686424E-08
  231 1.10614098E-08
  232 1.08359560E-08
  233 1.05558715E-08
  234 1.03605998E-08
  235 1.06206645E-08
  236 1.04225028E-08
  237 1.11524774E-08
  238 1.09271603E-08
  239 1.12658365E-08
  240 1.10429399E-08
  241 1.07113674E-08
  242 1.05121903E-08
  243 1.08288809E-08
  244 1.06307864E-08
  245 1.01899553E-08
  246 1.00509147E-08
  247 1.02488747E-08
  248 1.01070806E-08
  249 9.94968616E-09
  250 9.89107270E-09
  251 1.00036572E-08
  252 9.94368614E-09
  253 1.03372274E-08
  254 1.01940253E-08
  255 1.04563537E-08
  256 1.03132800E-08
  257 1.01084852E-08
  258 9.87792941E-09
  259 9.91082421E-09
  260 9.93019934E-09
  261 9.96380481E-09
  262 1.00661612E-08
  263 1.00148805E-08
  264 1.00488473E-08
  265 1.01337613E-08
  266 1.01676906E-08
  267 1.02395515E-08
  268 1.03722703E-08
  269 1.06822407E-08
  270 1.09103687E-08
  271 1.07499670E-08
  272 1.09802089E-08
  273 1.05850204E-08
  274 1.08436683E-08
  275 1.10738965E-08
  276 1.09640863E-08
  277 1.11919684E-08
  278 1.11472269E-08
  279 1.13870890E-08
  280 1.12185521E-08
  281 1.14591935E-08
  282 1.16252293E-08
  283 1.18579327E-08
  284 1.16974003E-08
  285 1.19295018E-08
  286 1.13115705E-08
  287 1.15508738E-08
  288 1.14266379E-08
  289 1.16623322E-08
  290 1.17871151E-08
  291 1.20167031E-08
  292 1.18944517E-08
  293 1.21195179E-08
  294 1.20824217E-08
  295 1.22967360E-08
  296 1.21527985E-08
  297 1.23654255E-08
  298 1.24995936E-08
  299 1.26902523E-08
  300 1.25662008E-08
  301 1.27544783E-08
  302 1.22370381E-08
  303 1.24463619E-08
  304 1.23350504E-08
  305 1.25394047E-08
  306 1.26435953E-08
  307 1.28281847E-08
  308 1.27316035E-08
  309 1.29111785E-08
  310 1.28683824E-08
  311 1.30128995E-08
  312 1.29300150E-08
  313 1.30720713E-08
  314 1.31657221E-08
  315 1.33065660E-08
  316 1.32220929E-08
  317 1.33601045E-08
  318 1.29798434E-08
  319 1.31385023E-08
  320 1.30581039E-08
  321 1.32119919E-08
  322 1.32848209E-08
  323 1.34192093E-08
  324 1.33537096E-08
  325 1.34836918E-08
  326 1.34358436E-08
  327 1.35540165E-08
  328 1.34865568E-08
  329 1.36019394E-08
  330 1.36615647E-08
  331 1.37589658E-08
  332 1.37067516E-08
  333 1.38014826E-08
  334 1.35421448E-08
  335 1.36541341E-08
  336 1.36024299E-08
  337 1.37104355E-08
  338 1.37556857E-08
  339 1.38472914E-08
  340 1.38082153E-08
  341 1.38962543E-08
  342 1.38466796E-08
  343 1.39251394E-08
  344 1.38865983E-08
  345 1.39625323E-08
  346 1.39947459E-08
  347 1.40558652E-08
  348 1.40296819E-08
  349 1.40884066E-08
  350 1.39294144E-08
  351 1.40024819E-08
  352 1.39750044E-08
  353 1.40448788E-08
  354 1.40668815E-08
  355 1.41229600E-08
  356 1.41062488E-08
  357 1.41594433E-08
  358 1.41088288E-08
  359 1.41539353E-08
  360 1.41390283E-08
  361 1.41818336E-08
  362 1.41914537E-08
  363 1.42216283E-08
  364 1.42170781E-08
  365 1.42449908E-08
  366 1.41710250E-08
  367 1.42113471E-08
  368 1.42047504E-08
  369 1.42424206E-08
  370 1.42441643E-08
  371 1.42696874E-08
  372 1.42726708E-08
  373 1.42956899E-08
  374 1.42446843E-08
  375 1.42608346E-08
  376 1.42657808E-08
  377 1.42796440E-08
  378 1.42867717E-08
  379 1.42881059E-08
  380 1.42995963E-08
  381 1.43116456E-08
  382 1.43206918E-08
  383 1.43043300E-08
  384 1.43024837E-08
  385 1.43229779E-08
  386 1.43186589E-08
  387 1.42942498E-08
  388 1.43079063E-08
  389 1.42909212E-08
  390 1.42679466E-08
  391 1.38840757E-08
  392 1.38983810E-08
  393 1.39045739E-08
  394 1.39496191E-08
  395 1.39573843E-08
  396 1.39243210E-08
  397 1.39319925E-08
  398 1.39117714E-08
  399 1.39200313E-08
  400 1.39403764E-08
  401 1.39493578E-08
  402 1.39293267E-08
  403 1.39395459E-08
  404 1.39761768E-08
  405 1.39652595E-08
  406 1.39729894E-08
  407 1.39814576E-08
  408 1.39856618E-08
  409 1.39802569E-08
  410 1.39866889E-08
  411 1.39587459E-08
  412 1.39682774E-08
  413 1.39504940E-08
  414 1.39618980E-08
  415 1.39776225E-08
  416 1.39863924E-08
  417 1.39734138E-08
  418 1.39846345E-08
  419 1.39883833E-08
  420 1.39891754E-08
  421 1.39918635E-08
  422 1.39953179E-08
  423 1.39875578E-08
  424 1.39830230E-08
  425 1.39965559E-08
  426 1.39950559E-08
  427 1.39941479E-08
  428 1.40004079E-08
  429 1.39951009E-08
  430 1.40043116E-08
  431 1.40046590E-08
  432 1.40063641E-08
  433 1.40117339E-08
  434 1.40168137E-08
  435 1.39750422E-08
  436 1.39284075E-08
  437 1.39902771E-08
  438 1.39477094E-08
  439 1.39120629E-08
  440 1.38907041E-08
  441 1.39347966E-08
  442 1.39170171E-08
  443 1.40049699E-08
  444 1.39666770E-08
  445 1.40189848E-08
  446 1.39851698E-08
  447 1.39632267E-08
  448 1.38637820E-08
  449 1.38307418E-08
  450 1.38938256E-08
  451 1.38646755E-08
  452 1.37910226E-08
  453 1.37440562E-08
  454 1.38290186E-08
  455 1.37863038E-08
  456 1.39242044E-08
  457 1.38992041E-08
  458 1.39547527E-08
  459 1.39341480E-08
  460 1.38678936E-08
  461 1.38297437E-08
  462 1.39074510E-08
  463 1.38741590E-08
  464 1.36892661E-08
  465 1.36260663E-08
  466 1.37359752E-08
  467 1.36774702E-08
  468 1.36102188E-08
  469 1.35336433E-08
  470 1.37842251E-08
  471 1.37308061E-08
  472 1.38337750E-08
  473 1.37858047E-08
  474 1.36689505E-08
  475 1.35981172E-08
  476 1.37297539E-08
  477 1.36651267E-08
  478 1.32771580E-08
  479 1.34471621E-08
  480 1.33501963E-08
  481 1.31971428E-08
  482 1.30714814E-08
  483 1.32765959E-08
  484 1.31575914E-08
  485 1.35177615E-08
  486 1.34273410E-08
  487 1.35914263E-08
  488 1.35081583E-08
  489 1.33609130E-08
  490 1.32494314E-08
  491 1.34495977E-08
  492 1.33464395E-08
  493 1.29331862E-08
  494 1.27819116E-08
  495 1.30263347E-08
  496 1.28824719E-08
  497 1.26175133E-08
  498 1.24401422E-08
  499 1.27258323E-08
  500 1.25565188E-08
  501 1.31262086E-08
  502 1.29908993E-08
  503 1.32321724E-08
  504 1.31064766E-08
  505 1.28433239E-08
  506 1.26835530E-08
  507 1.29691814E-08
  508 1.28203416E-08
  509 1.22503634E-08
  510 1.20493014E-08
  511 1.23750227E-08
  512 1.21823659E-08
  513 1.18388041E-08
  514 1.16216141E-08
  515 1.19802643E-08
  516 1.17713016E-08
  517 1.25120169E-08
  518 1.23296415E-08
  519 1.26603402E-08
  520 1.24900162E-08
  521 1.21270702E-08
  522 1.14015234E-08
  523 1.11834716E-08
  524 1.15590895E-08
  525 1.13483780E-08
  526 1.09575881E-08
  527 1.17363126E-08
  528 1.13425126E-08
  529 1.11616367E-08
  530 1.15643020E-08
  531 1.13939110E-08
  532 1.06199658E-08
  533 1.04163170E-08
  534 1.10013911E-08
  535 1.08692148E-08
  536 1.12427209E-08
  537 1.11178248E-08
  538 1.07719487E-08
  539 1.07150299E-08
  540 1.10257717E-08
  541 1.09717855E-08
  542 1.03890187E-08
  543 1.05434401E-08
  544 1.07017674E-08
  545 1.07328710E-08
  546 1.09590583E-08
  547 1.09882880E-08
  548 1.10255466E-08
  549 1.08912673E-08
  550 1.13037481E-08
  551 1.11137598E-08
  552 1.12897931E-08
  553 1.13583083E-08
  554 1.15240585E-08
  555 1.14842774E-08
  556 1.16900552E-08
  557 1.17070312E-08
  558 1.19004589E-08
  559 1.17534336E-08
  560 1.20191535E-08
  561 1.22376422E-08
  562 1.21606154E-08
  563 1.23704774E-08
  564 1.20999034E-08
  565 1.23178850E-08
  566 1.25171349E-08
  567 1.24896805E-08
  568 1.26764528E-08
  569 1.24465029E-08
  570 1.26442093E-08
  571 1.25708169E-08
  572 1.27602256E-08
  573 1.29690537E-08
  574 1.27071723E-08
  575 1.28867041E-08
  576 1.28545239E-08
  577 1.30227101E-08
  578 1.31752436E-08
  579 1.31441322E-08
  580 1.32922409E-08
  581 1.32374943E-08
  582 1.33788544E-08
  583 1.34284807E-08
  584 1.35532962E-08
  585 1.35087771E-08
  586 1.36277014E-08
  587 1.34561874E-08
  588 1.36942817E-08
  589 1.36671787E-08
  590 1.37706325E-08
  591 1.37361045E-08
  592 1.38344702E-08
  593 1.38641512E-08
  594 1.39482027E-08
  595 1.39232678E-08
  596 1.40029385E-08
  597 1.38926211E-08
  598 1.39853064E-08
  599 1.40602363E-08
  600 1.40499774E-08
  601 1.41198454E-08
  602 1.40232194E-08
  603 1.40895929E-08
  604 1.40738864E-08
  605 1.41364743E-08
  606 1.41476716E-08
  607 1.41977611E-08
  608 1.41910218E-08
  609 1.42378055E-08
  610 1.41268102E-08
  611 1.41853552E-08
  612 1.41817747E-08
  613 1.42360507E-08
  614 1.42361562E-08
  615 1.42794563E-08
  616 1.42829182E-08
  617 1.43225822E-08
  618 1.42401255E-08
  619 1.42749909E-08
  620 1.42770612E-08
  621 1.43089868E-08
  622 1.43025496E-08
  623 1.43229659E-08
  624 1.43337471E-08
  625 1.43514787E-08
  626 1.43154586E-08
  627 1.43443297E-08
  628 1.43552099E-08
  629 1.43809332E-08
  630 1.43662035E-08
  631 1.43811871E-08
  632 1.43998532E-08
  633 1.44120450E-08
  634 1.43363827E-08
  635 1.43429292E-08
  636 1.43622975E-08
  637 1.43663059E-08
  638 1.43427305E-08
  639 1.43359177E-08
  640 1.43636027E-08
  641 1.43542933E-08
  642 1.43893670E-08
  643 1.43908170E-08
  644 1.44175640E-08
  645 1.44164543E-08
  646 1.43856079E-08
  647 1.43738182E-08
  648 1.44087574E-08
  649 1.43945236E-08
  650 1.43226399E-08
  651 1.43030770E-08
  652 1.43385025E-08
  653 1.43163875E-08
  654 1.42774536E-08
  655 1.42460539E-08
  656 1.42881527E-08
  657 1.42540656E-08
  658 1.43555468E-08
  659 1.43309265E-08
  660 1.43738244E-08
  661 1.43467675E-08
  662 1.43001402E-08
  663 1.42634367E-08
  664 1.43135127E-08
  665 1.42742887E-08
  666 1.42144716E-08
  667 1.41698095E-08
  668 1.42211476E-08
  669 1.41737033E-08
  670 1.42294117E-08
  671 1.41793017E-08
  672 1.41216471E-08
  673 1.40656461E-08
  674 1.41244987E-08
  675 1.40656744E-08
  676 1.40036393E-08
  677 1.39407778E-08
  678 1.38755720E-08
  679 1.33858923E-08
  680 1.34127314E-08
  681 1.33634540E-08
  682 1.33375178E-08
  683 1.33721516E-08
  684 1.33938941E-08
  685 1.38090951E-08
  686 1.34021468E-08
  687 1.38063238E-08
  688 1.38253721E-08
  689 1.38354848E-08
  690 1.38562319E-08
  691 1.38428139E-08
  692 1.38478957E-08
  693 1.38211702E-08
  694 1.38297810E-08
  695 1.38168800E-08
  696 1.38237913E-08
  697 1.38354844E-08
  698 1.38388658E-08
  699 1.38276611E-08
  700 1.38291269E-08
  701 1.38611306E-08
  702 1.38648576E-08
  703 1.38512808E-08
  704 1.38534759E-08
  705 1.38682823E-08
  706 1.38714859E-08
  707 1.38555140E-08
  708 1.38574705E-08
  709 1.38405292E-08
  710 1.38410853E-08
  711 1.38288494E-08
  712 1.38275002E-08
  713 1.38414388E-08
  714 1.38419560E-08
  715 1.38260075E-08
  716 1.38248819E-08
  717 1.38748999E-08
  718 1.38789069E-08
  719 1.38598291E-08
  720 1.38630212E-08
  721 1.38838275E-08
  722 1.38899095E-08
  723 1.38674114E-08
  724 1.38732845E-08
  725 1.38430822E-08
  726 1.38453023E-08
  727 1.38245880E-08
  728 1.38256696E-08
  729 1.38490291E-08
  730 1.38545886E-08
  731 1.38285926E-08
  732 1.38337276E-08
  733 1.38973184E-08
  734 1.39061308E-08
  735 1.38808355E-08
  736 1.38901613E-08
  737 1.39163307E-08
  738 1.39278087E-08
  739 1.39012572E-08
  740 1.39140156E-08
  741 1.38567637E-08
  742 1.38815826E-08
  743 1.39403651E-08
  744 1.39537150E-08
  745 1.39282303E-08
  746 1.39436023E-08
  747 1.39714268E-08
  748 1.39151045E-08
  749 1.39547651E-08
  750 1.40008573E-08
  751 1.40256662E-08
  752 1.39966564E-08
  753 1.40360551E-08
  754 1.40412229E-08
  755 1.40112048E-08
  756 1.40679611E-08
  757 1.40571419E-08
  758 1.39944328E-08
  759 1.39556821E-08
  760 1.40595879E-08
  761 1.40420102E-08
  762 1.38913062E-08
  763 1.37923099E-08
  764 1.37343087E-08
  765 1.38562889E-08
  766 1.38052839E-08
  767 1.40013698E-08
  768 1.39351003E-08
  769 1.36721028E-08
  770 1.35461546E-08
  771 1.38409739E-08
  772 1.37526730E-08
  773 1.33474740E-08
  774 1.31077796E-08
  775 1.35984432E-08
  776 1.34112807E-08
  777 1.28278302E-08
  778 1.25138458E-08
  779 1.31923424E-08
  780 1.29468322E-08
  781 1.21816405E-08
  782 1.18082535E-08
  783 1.16505578E-08
  784 1.20716691E-08
  785 1.19286630E-08
  786 1.26871528E-08
  787 1.23514398E-08
  788 1.22248367E-08
  789 1.26441702E-08
  790 1.25353552E-08
  791 1.15104568E-08
  792 1.13945696E-08
  793 1.18014930E-08
  794 1.16961864E-08
  795 1.13090290E-08
  796 1.12587431E-08
  797 1.16183440E-08
  798 1.15724617E-08
  799 1.22276293E-08
  800 1.20997147E-08
  801 1.12467232E-08
  802 1.12736419E-08
  803 1.15613095E-08
  804 1.15855216E-08
  805 1.13961669E-08
  806 1.14978084E-08
  807 1.17106993E-08
  808 1.18027434E-08
  809 1.21575295E-08
  810 1.20464416E-08
  811 1.21277186E-08
  812 1.23986773E-08
  813 1.24682524E-08
  814 1.16285651E-08
  815 1.17818963E-08
  816 1.19212362E-08
  817 1.20602381E-08
  818 1.19511053E-08
  819 1.21299230E-08
  820 1.22136778E-08
  821 1.23758813E-08
  822 1.22325000E-08
  823 1.23555519E-08
  824 1.25581696E-08
  825 1.26639852E-08
  826 1.27015366E-08
  827 1.25132261E-08
  828 1.26744231E-08
  829 1.28470247E-08
  830 1.28702839E-08
  831 1.30272389E-08
  832 1.29761362E-08
  833 1.32467234E-08
  834 1.31688912E-08
  835 1.32944123E-08
  836 1.34299628E-08
  837 1.34332769E-08
  838 1.35570552E-08
  839 1.34979432E-08
  840 1.37039715E-08
  841 1.36699653E-08
  842 1.38742828E-08
  843 1.38991837E-08
  844 1.40658214E-08
  845 1.40444668E-08
  846 1.41830249E-08
  847 1.42050488E-08
  848 1.43182194E-08
  849 1.42921591E-08
  850 1.43735619E-08
  851 1.44064953E-08
  852 1.44706770E-08
  853 1.44283678E-08
  854 1.44571943E-08
  855 1.45111445E-08
  856 1.45278706E-08
  857 1.44602547E-08
  858 1.44375524E-08
  859 1.45205030E-08
  860 1.44885332E-08
  861 1.43933842E-08
  862 1.43639815E-08
  863 1.44142704E-08
  864 1.43826344E-08
  865 1.43283646E-08
  866 1.42867413E-08
  867 1.43447852E-08
  868 1.43009085E-08
  869 1.44315791E-08
  870 1.43628555E-08
  871 1.43168956E-08
  872 1.43826451E-08
  873 1.43347952E-08
  874 1.42394104E-08
  875 1.41867801E-08
  876 1.42512847E-08
  877 1.41963085E-08
  878 1.41293850E-08
  879 1.40678990E-08
  880 1.41365068E-08
  881 1.40725533E-08
  882 1.42651660E-08
  883 1.42080462E-08
  884 1.42811713E-08
  885 1.42221367E-08
  886 1.41460536E-08
  887 1.40798592E-08
  888 1.41581975E-08
  889 1.40916878E-08
  890 1.40031436E-08
  891 1.39377383E-08
  892 1.40068241E-08
  893 1.39375332E-08
  894 1.38697329E-08
  895 1.38016556E-08
  896 1.38669312E-08
  897 1.37962814E-08
  898 1.40120926E-08
  899 1.39404571E-08
  900 1.40204884E-08
  901 1.39467825E-08
  902 1.38674981E-08
  903 1.37945107E-08
  904 1.38717417E-08
  905 1.37966873E-08
  906 1.37348257E-08
  907 1.37269476E-08
  908 1.36603510E-08
  909 1.35979162E-08
  910 1.35410121E-08
  911 1.37228985E-08
  912 1.36541282E-08
  913 1.37230568E-08
  914 1.36523565E-08
  915 1.35896736E-08
  916 1.35309525E-08
  917 1.35861034E-08
  918 1.35257589E-08
  919 1.34792622E-08
  920 1.34357184E-08
  921 1.34726607E-08
  922 1.34279590E-08
  923 1.34012055E-08
  924 1.33925633E-08
  925 1.33671046E-08
  926 1.33519174E-08
  927 1.33470408E-08
  928 1.33522383E-08
  929 1.33176126E-08
  930 1.32437394E-08
  931 1.32834659E-08
  932 1.33284397E-08
  933 1.32951730E-08
  934 1.33399800E-08
  935 1.33469386E-08
  936 1.33812329E-08
  937 1.33568852E-08
  938 1.33907097E-08
  939 1.34106519E-08
  940 1.38036779E-08
  941 1.34194133E-08
  942 1.38011953E-08
  943 1.33673804E-08
  944 1.34005971E-08
  945 1.33784507E-08
  946 1.34109148E-08
  947 1.37891358E-08
  948 1.37989245E-08
  949 1.37891676E-08
  950 1.37969278E-08
  951 1.38125233E-08
  952 1.38175300E-08
  953 1.38081327E-08
  954 1.38110242E-08
  955 1.38143743E-08
  956 1.38017471E-08
  957 1.37933920E-08
  958 1.38073282E-08
  959 1.37981497E-08
  960 1.37757976E-08
  961 1.37562620E-08
  962 1.37927191E-08
  963 1.37957092E-08
  964 1.37430794E-08
  965 1.37410601E-08
  966 1.38106389E-08
  967 1.38389399E-08
  968 1.37549846E-08
  969 1.37867375E-08
  970 1.38855942E-08
  971 1.39856661E-08
  972 1.40409350E-08
  973 1.39677918E-08
  974 1.40401838E-08
  975 1.41260663E-08
  976 1.41646176E-08
  977 1.41593003E-08
  978 1.40062693E-08
  979 1.39666000E-08
  980 1.41811434E-08
  981 1.41825884E-08
  982 1.38262621E-08
  983 1.37603852E-08
  984 1.39520163E-08
  985 1.38994634E-08
  986 1.36880106E-08
  987 1.36093296E-08
  988 1.38416368E-08
  989 1.37787834E-08
  990 1.41252417E-08
  991 1.40536590E-08
  992 1.35778686E-08
  993 1.34082611E-08
  994 1.39705573E-08
  995 1.37901781E-08
  996 1.37332908E-08
  997 1.40151116E-08
  998 1.39788712E-08
  999 1.32300557E-08
  1000 1.29463091E-08
  1001 1.28563100E-08
  1002 1.32542747E-08
  1003 1.31837527E-08
  1004 1.36758776E-08
  1005 1.36191489E-08
  1006 1.39427410E-08
  1007 1.39074568E-08
  1008 1.35645660E-08
  1009 1.35138232E-08
  1010 1.38738529E-08
  1011 1.38428542E-08
  1012 1.29166444E-08
  1013 1.28290433E-08
  1014 1.36265870E-08
  1015 1.34033407E-08
  1016 1.34842534E-08
  1017 1.37753597E-08
  1018 1.38649594E-08
  1019 1.29053211E-08
  1020 1.27624542E-08
  1021 1.28196474E-08
  1022 1.31327880E-08
  1023 1.31771778E-08
  1024 1.36708903E-08
  1025 1.35048434E-08
  1026 1.35362582E-08
  1027 1.38740819E-08
  1028 1.38925807E-08
  1029 1.28938657E-08
  1030 1.29815184E-08
  1031 1.32351859E-08
  1032 1.33041139E-08
  1033 1.32757382E-08
  1034 1.35778567E-08
  1035 1.36278509E-08
  1036 1.39178588E-08
  1037 1.39490358E-08
  1038 1.38600990E-08
  1039 1.34679270E-08
  1040 1.36606840E-08
  1041 1.39671067E-08
  1042 1.39423397E-08
  1043 1.40083566E-08
  1044 1.41600660E-08
  1045 1.41902068E-08
  1046 1.38251517E-08
  1047 1.39905848E-08
  1048 1.40555635E-08
  1049 1.41181991E-08
  1050 1.42371553E-08
  1051 1.42836386E-08
  1052 1.42798270E-08
  1053 1.43125487E-08
  1054 1.44930721E-08
  1055 1.46049978E-08
  1056 1.46429167E-08
  1057 1.45988420E-08
  1058 1.44798887E-08
  1059 1.44042092E-08
  1060 1.43546833E-08
  1061 1.44275851E-08
  1062 1.43766160E-08
  1063 1.45341893E-08
  1064 1.44404619E-08
  1065 1.42993993E-08
  1066 1.42387031E-08
  1067 1.43199259E-08
  1068 1.42578426E-08
  1069 1.41730877E-08
  1070 1.41051632E-08
  1071 1.41926337E-08
  1072 1.41218242E-08
  1073 1.43239609E-08
  1074 1.42136596E-08
  1075 1.41417793E-08
  1076 1.42376963E-08
  1077 1.41650935E-08
  1078 1.40322214E-08
  1079 1.39567510E-08
  1080 1.40474653E-08
  1081 1.39705647E-08
  1082 1.38799364E-08
  1083 1.38031187E-08
  1084 1.38923131E-08
  1085 1.38140654E-08
  1086 1.40663508E-08
  1087 1.39883772E-08
  1088 1.40889594E-08
  1089 1.40102877E-08
  1090 1.39090500E-08
  1091 1.38297301E-08
  1092 1.39302645E-08
  1093 1.38502491E-08
  1094 1.37277626E-08
  1095 1.36554069E-08
  1096 1.37373054E-08
  1097 1.36635968E-08
  1098 1.35876048E-08
  1099 1.35258548E-08
  1100 1.35945207E-08
  1101 1.35316050E-08
  1102 1.37519126E-08
  1103 1.36771769E-08
  1104 1.37717392E-08
  1105 1.36963208E-08
  1106 1.36071236E-08
  1107 1.35433012E-08
  1108 1.36256039E-08
  1109 1.35611490E-08
  1110 1.34715292E-08
  1111 1.34258082E-08
  1112 1.34762504E-08
  1113 1.34296615E-08
  1114 1.33896234E-08
  1115 1.33636186E-08
  1116 1.33927884E-08
  1117 1.33662864E-08
  1118 1.34871313E-08
  1119 1.34398370E-08
  1120 1.35043901E-08
  1121 1.34565625E-08
  1122 1.34023833E-08
  1123 1.33754348E-08
  1124 1.34186416E-08
  1125 1.33912996E-08
  1126 1.33481309E-08
  1127 1.33431918E-08
  1128 1.33504955E-08
  1129 1.33454420E-08
  1130 1.33485485E-08
  1131 1.33637004E-08
  1132 1.33508604E-08
  1133 1.33662317E-08
  1134 1.33593350E-08
  1135 1.33541075E-08
  1136 1.33748836E-08
  1137 1.33694178E-08
  1138 1.33594788E-08
  1139 1.33749170E-08
  1140 1.33746250E-08
  1141 1.33899669E-08
  1142 1.33879461E-08
  1143 1.34204360E-08
  1144 1.33908317E-08
  1145 1.34237857E-08
  1146 1.34602246E-08
  1147 1.34641228E-08
  1148 1.35108258E-08
  1149 1.33996818E-08
  1150 1.34328807E-08
  1151 1.34146946E-08
  1152 1.34479052E-08
  1153 1.34735241E-08
  1154 1.35205769E-08
  1155 1.34885982E-08
  1156 1.35357281E-08
  1157 1.35628751E-08
  1158 1.36192832E-08
  1159 1.35730028E-08
  1160 1.36297997E-08
  1161 1.35882483E-08
  1162 1.36451478E-08
  1163 1.36900256E-08
  1164 1.37528171E-08
  1165 1.37054773E-08
  1166 1.37683669E-08
  1167 1.38173992E-08
  1168 1.38330367E-08
  1169 1.38988009E-08
  1170 1.39650668E-08
  1171 1.40313306E-08
  1172 1.31443383E-08
  1173 1.30128226E-08
  1174 1.30830119E-08
  1175 1.31586651E-08
  1176 1.30982589E-08
  1177 1.31745674E-08
  1178 1.31976368E-08
  1179 1.32563188E-08
  1180 1.32110843E-08
  1181 1.32699897E-08
  1182 1.33077727E-08
  1183 1.33522725E-08
  1184 1.33213178E-08
  1185 1.33653622E-08
  1186 1.32258481E-08
  1187 1.32848208E-08
  1188 1.32420153E-08
  1189 1.33008872E-08
  1190 1.33358675E-08
  1191 1.33793009E-08
  1192 1.33514884E-08
  1193 1.33941496E-08
  1194 1.33901282E-08
  1195 1.34216889E-08
  1196 1.34024512E-08
  1197 1.34329534E-08
  1198 1.37897347E-08
  1199 1.37952831E-08
  1200 1.37909274E-08
  1201 1.37940865E-08
  1202 1.34154672E-08
  1203 1.37853273E-08
  1204 1.34292336E-08
  1205 1.37904648E-08
  1206 1.37928531E-08
  1207 1.37934554E-08
  1208 1.37956381E-08
  1209 1.37935305E-08
  1210 1.37907761E-08
  1211 1.37706691E-08
  1212 1.37879026E-08
  1213 1.37770655E-08
  1214 1.37849419E-08
  1215 1.37707860E-08
  1216 1.37619191E-08
  1217 1.37435373E-08
  1218 1.37520933E-08
  1219 1.37300077E-08
  1220 1.37406063E-08
  1221 1.37281880E-08
  1222 1.37151499E-08
  1223 1.37049791E-08
  1224 1.36889649E-08
  1225 1.37230814E-08
  1226 1.37017794E-08
  1227 1.37057747E-08
  1228 1.36807203E-08
  1229 1.36808968E-08
  1230 1.36616995E-08
  1231 1.36562184E-08
  1232 1.36336508E-08
  1233 1.36862006E-08
  1234 1.36779392E-08
  1235 1.36461061E-08
  1236 1.36341421E-08
  1237 1.36143569E-08
  1238 1.36004680E-08
  1239 1.36077995E-08
  1240 1.37020312E-08
  1241 1.37137645E-08
  1242 1.36675860E-08
  1243 1.36795177E-08
  1244 1.37309626E-08
  1245 1.37534910E-08
  1246 1.36976027E-08
  1247 1.37216922E-08
  1248 1.36179569E-08
  1249 1.36568213E-08
  1250 1.37825807E-08
  1251 1.38573820E-08
  1252 1.37230293E-08
  1253 1.38005212E-08
  1254 1.38471152E-08
  1255 1.37746508E-08
  1256 1.38252481E-08
  1257 1.39290367E-08
  1258 1.39716187E-08
  1259 1.39134368E-08
  1260 1.39604724E-08
  1261 1.40147244E-08
  1262 1.40575211E-08
  1263 1.40082836E-08
  1264 1.40559877E-08
  1265 1.38967206E-08
  1266 1.39483309E-08
  1267 1.38792321E-08
  1268 1.39355165E-08
  1269 1.40009570E-08
  1270 1.40536631E-08
  1271 1.39930424E-08
  1272 1.40508176E-08
  1273 1.41226170E-08
  1274 1.41762693E-08
  1275 1.41335656E-08
  1276 1.42283348E-08
  1277 1.42746423E-08
  1278 1.42412734E-08
  1279 1.42931123E-08
  1280 1.42427845E-08
  1281 1.42948429E-08
  1282 1.42986645E-08
  1283 1.43743215E-08
  1284 1.43315767E-08
  1285 1.43434694E-08
  1286 1.44256190E-08
  1287 1.44343542E-08
  1288 1.44541226E-08
  1289 1.44964949E-08
  1290 1.45237054E-08
  1291 1.43536134E-08
  1292 1.43956932E-08
  1293 1.44715914E-08
  1294 1.44871975E-08
  1295 1.45491640E-08
  1296 1.45733914E-08
  1297 1.46016096E-08
  1298 1.45208345E-08
  1299 1.43574074E-08
  1300 1.43437857E-08
  1301 1.47270624E-08
  1302 1.47856152E-08
  1303 1.42062205E-08
  1304 1.41920230E-08
  1305 1.44640517E-08
  1306 1.44703098E-08
  1307 1.43280759E-08
  1308 1.48533364E-08
  1309 1.49235505E-08
  1310 1.43247590E-08
  1311 1.42453802E-08
  1312 1.42385545E-08
  1313 1.46023293E-08
  1314 1.46012311E-08
  1315 1.49837321E-08
  1316 1.51153105E-08
  1317 1.42346787E-08
  1318 1.42339008E-08
  1319 1.45983730E-08
  1320 1.45938395E-08
  1321 1.44133814E-08
  1322 1.51122803E-08
  1323 1.50777580E-08
  1324 1.44165201E-08
  1325 1.44294166E-08
  1326 1.50227129E-08
  1327 1.49627952E-08
  1328 1.44537596E-08
  1329 1.43741411E-08
  1330 1.43860933E-08
  1331 1.45665062E-08
  1332 1.45772262E-08
  1333 1.49111389E-08
  1334 1.47684899E-08
  1335 1.47622200E-08
  1336 1.49621752E-08
  1337 1.49398573E-08
  1338 1.44159067E-08
  1339 1.44465749E-08
  1340 1.45904631E-08
  1341 1.46058223E-08
  1342 1.45629568E-08
  1343 1.47596029E-08
  1344 1.47603055E-08
  1345 1.49222457E-08
  1346 1.49090674E-08
  1347 1.48322529E-08
  1348 1.47405510E-08
  1349 1.47940439E-08
  1350 1.48234217E-08
  1351 1.48089318E-08
  1352 1.47331544E-08
  1353 1.45802050E-08
  1354 1.43807690E-08
  1355 1.42433811E-08
  1356 1.44458796E-08
  1357 1.43095586E-08
  1358 1.41153188E-08
  1359 1.40363351E-08
  1360 1.41454002E-08
  1361 1.40664950E-08
  1362 1.39560073E-08
  1363 1.38756852E-08
  1364 1.39862585E-08
  1365 1.39060237E-08
  1366 1.41585025E-08
  1367 1.40000969E-08
  1368 1.37968605E-08
  1369 1.37211159E-08
  1370 1.38272672E-08
  1371 1.37515584E-08
  1372 1.36500609E-08
  1373 1.35852581E-08
  1374 1.36804965E-08
  1375 1.36156363E-08
  1376 1.38445960E-08
  1377 1.37040705E-08
  1378 1.35281457E-08
  1379 1.34799643E-08
  1380 1.35584112E-08
  1381 1.35100600E-08
  1382 1.34416947E-08
  1383 1.34140146E-08
  1384 1.34715645E-08
  1385 1.34436052E-08
  1386 1.35904959E-08
  1387 1.35134696E-08
  1388 1.33972757E-08
  1389 1.33915051E-08
  1390 1.34265387E-08
  1391 1.34203980E-08
  1392 1.33964273E-08
  1393 1.34115041E-08
  1394 1.34249146E-08
  1395 1.34395568E-08
  1396 1.34625898E-08
  1397 1.34560186E-08
  1398 1.35052381E-08
  1399 1.34981832E-08
  1400 1.34600135E-08
  1401 1.34740566E-08
  1402 1.35015496E-08
  1403 1.35148390E-08
  1404 1.34359855E-08