# File generated by Flopy version 3.9.1 on 04/13/2026 at 15:06:20.
BEGIN options
  FIXED_CELL
  PRINT_FLOWS
  SAVE_FLOWS
END options

BEGIN dimensions
  MAXBOUND  171865
END dimensions

BEGIN period  1
  1 5.69925325E-09
  2 5.70368014E-09
  3 5.70295832E-09
  4 5.70784259E-09
  5 5.71359422E-09
  6 5.72020223E-09
  7 5.72765417E-09
  8 5.73593616E-09
  9 5.74503292E-09
  10 5.75492790E-09
  11 5.77706026E-09
  12 5.72304333E-09
  13 5.68253120E-09
  14 5.68928072E-09
  15 5.70398900E-09
  16 5.70852449E-09
  17 5.69480813E-09
  18 5.69127294E-09
  19 5.67939852E-09
  20 5.68191968E-09
  21 5.66988332E-09
  22 5.67895900E-09
  23 5.67842147E-09
  24 5.66843551E-09
  25 5.66999299E-09
  26 5.66192409E-09
  27 5.65934177E-09
  28 5.65115758E-09
  29 5.66838805E-09
  30 5.65826242E-09
  31 5.65872188E-09
  32 5.64845676E-09
  33 5.64904098E-09
  34 5.64074152E-09
  35 5.63910780E-09
  36 5.63069320E-09
  37 5.68220137E-09
  38 5.67748898E-09
  39 5.67143681E-09
  40 5.66596996E-09
  41 5.65982873E-09
  42 5.66629566E-09
  43 5.66207514E-09
  44 5.65461198E-09
  45 5.65032954E-09
  46 5.67576230E-09
  47 5.67958374E-09
  48 5.67911735E-09
  49 5.66715365E-09
  50 5.66668164E-09
  51 5.65878309E-09
  52 5.65642555E-09
  53 5.64698946E-09
  54 5.64459793E-09
  55 5.65500676E-09
  56 5.65452912E-09
  57 5.64315931E-09
  58 5.64267604E-09
  59 5.65476760E-09
  60 5.64853717E-09
  61 5.64389864E-09
  62 5.63757891E-09
  63 5.64324467E-09
  64 5.63890019E-09
  65 5.63221057E-09
  66 5.62780399E-09
  67 5.63338012E-09
  68 5.62697108E-09
  69 5.62322942E-09
  70 5.61673115E-09
  71 5.62152690E-09
  72 5.61705819E-09
  73 5.61121118E-09
  74 5.60668038E-09
  75 5.63551198E-09
  76 5.63308640E-09
  77 5.62436760E-09
  78 5.62190793E-09
  79 5.63162791E-09
  80 5.63113901E-09
  81 5.62042954E-09
  82 5.61993501E-09
  83 5.61357360E-09
  84 5.61107983E-09
  85 5.60314762E-09
  86 5.60061975E-09
  87 5.60958154E-09
  88 5.60908137E-09
  89 5.59910157E-09
  90 5.59859576E-09
  91 5.67956438E-09
  92 5.68092363E-09
  93 5.66713717E-09
  94 5.66851900E-09
  95 5.68319214E-09
  96 5.68636525E-09
  97 5.67082409E-09
  98 5.67404764E-09
  99 5.65499320E-09
  100 5.65639771E-09
  101 5.64314871E-09
  102 5.64457598E-09
  103 5.65873953E-09
  104 5.66201372E-09
  105 5.64695466E-09
  106 5.65027966E-09
  107 5.69043659E-09
  108 5.69539810E-09
  109 5.67818310E-09
  110 5.68322220E-09
  111 5.70124011E-09
  112 5.70795138E-09
  113 5.68915501E-09
  114 5.69596997E-09
  115 5.66621356E-09
  116 5.67133056E-09
  117 5.65454407E-09
  118 5.65973918E-09
  119 5.67735450E-09
  120 5.68427352E-09
  121 5.66585451E-09
  122 5.67287787E-09
  123 5.63162029E-09
  124 5.63307039E-09
  125 5.62042493E-09
  126 5.62189789E-09
  127 5.63548601E-09
  128 5.63886194E-09
  129 5.62435050E-09
  130 5.62777742E-09
  131 5.60957993E-09
  132 5.61107576E-09
  133 5.59910295E-09
  134 5.60062164E-09
  135 5.61356539E-09
  136 5.61704332E-09
  137 5.60314827E-09
  138 5.60667718E-09
  139 5.64319107E-09
  140 5.64846446E-09
  141 5.63217136E-09
  142 5.63752312E-09
  143 5.65467136E-09
  144 5.66179925E-09
  145 5.64382168E-09
  146 5.65105420E-09
  147 5.62150208E-09
  148 5.62693223E-09
  149 5.61120071E-09
  150 5.61670919E-09
  151 5.63332246E-09
  152 5.64065961E-09
  153 5.62319101E-09
  154 5.63063267E-09
  155 5.71551909E-09
  156 5.72392900E-09
  157 5.70365394E-09
  158 5.71219229E-09
  159 5.73316544E-09
  160 5.74321139E-09
  161 5.72156892E-09
  162 5.73176638E-09
  163 5.69207413E-09
  164 5.70074132E-09
  165 5.68079543E-09
  166 5.68959176E-09
  167 5.71025857E-09
  168 5.72060798E-09
  169 5.69924994E-09
  170 5.70975161E-09
  171 5.75404858E-09
  172 5.76565758E-09
  173 5.74276595E-09
  174 5.75454766E-09
  175 5.77801782E-09
  176 5.79110774E-09
  177 5.76709044E-09
  178 5.78037219E-09
  179 5.73177034E-09
  180 5.74372518E-09
  181 5.72107705E-09
  182 5.73320529E-09
  183 5.75645090E-09
  184 5.76992485E-09
  185 5.74611420E-09
  186 5.75978055E-09
  187 5.66983394E-09
  188 5.67875962E-09
  189 5.65920612E-09
  190 5.66826122E-09
  191 5.68855892E-09
  192 5.69921301E-09
  193 5.67820170E-09
  194 5.68900824E-09
  195 5.64892873E-09
  196 5.65811321E-09
  197 5.63901887E-09
  198 5.64833256E-09
  199 5.66819479E-09
  200 5.67915369E-09
  201 5.65855503E-09
  202 5.66966602E-09
  203 5.71070168E-09
  204 5.72300345E-09
  205 5.70066016E-09
  206 5.71313542E-09
  207 5.73609563E-09
  208 5.74995443E-09
  209 5.72641078E-09
  210 5.74046190E-09
  211 5.69096869E-09
  212 5.70361724E-09
  213 5.68164379E-09
  214 5.69446524E-09
  215 5.71707553E-09
  216 5.73131863E-09
  217 5.70810602E-09
  218 5.72254059E-09
  219 5.80490486E-09
  220 5.81938584E-09
  221 5.79436987E-09
  222 5.80905956E-09
  223 5.83452662E-09
  224 5.82441662E-09
  225 5.84041573E-09
  226 5.78412342E-09
  227 5.79902212E-09
  228 5.77418018E-09
  229 5.78928799E-09
  230 5.81459571E-09
  231 5.83081827E-09
  232 5.80507817E-09
  233 5.82152417E-09
  234 5.87029616E-09
  235 5.90558502E-09
  236 5.84766332E-09
  237 5.86510388E-09
  238 5.83859891E-09
  239 5.85627481E-09
  240 5.88311262E-09
  241 5.90166188E-09
  242 5.87452391E-09
  243 5.89331797E-09
  244 5.76455510E-09
  245 5.77987196E-09
  246 5.75526341E-09
  247 5.77078905E-09
  248 5.79587858E-09
  249 5.81254781E-09
  250 5.78701177E-09
  251 5.80390380E-09
  252 5.74632060E-09
  253 5.76205455E-09
  254 5.73774241E-09
  255 5.75368398E-09
  256 5.77849281E-09
  257 5.79560700E-09
  258 5.77033700E-09
  259 5.78767247E-09
  260 5.82985195E-09
  261 5.84776280E-09
  262 5.82143682E-09
  263 5.83958201E-09
  264 5.86625179E-09
  265 5.88529006E-09
  266 5.85831018E-09
  267 5.87759186E-09
  268 5.81336815E-09
  269 5.83174684E-09
  270 5.80566079E-09
  271 5.82427187E-09
  272 5.85071323E-09
  273 5.87023725E-09
  274 5.84347529E-09
  275 5.86324032E-09
  276 5.92072382E-09
  277 5.94027049E-09
  278 5.91262854E-09
  279 5.93242708E-09
  280 5.95268504E-09
  281 5.97337391E-09
  282 5.90484858E-09
  283 5.92489821E-09
  284 5.89739740E-09
  285 5.91769708E-09
  286 5.94540982E-09
  287 5.96635433E-09
  288 5.93846117E-09
  289 5.95966005E-09
  290 5.89028864E-09
  291 5.91083707E-09
  292 5.88353611E-09
  293 5.90433172E-09
  294 5.93185223E-09
  295 5.95330393E-09
  296 5.92559626E-09
  297 5.94729895E-09
  298 5.98770284E-09
  299 6.00942669E-09
  300 5.98126425E-09
  301 6.00324459E-09
  302 6.03149751E-09
  303 6.02557216E-09
  304 6.04821849E-09
  305 5.97516215E-09
  306 5.99739716E-09
  307 5.96940924E-09
  308 5.99189686E-09
  309 6.01997958E-09
  310 6.04288041E-09
  311 6.01473190E-09
  312 6.03788489E-09
  313 6.07115555E-09
  314 6.09435580E-09
  315 6.06607116E-09
  316 6.08952386E-09
  317 6.06132687E-09
  318 6.12103807E-09
  319 6.15114482E-09
  320 6.17654387E-09
  321 6.14647101E-09
  322 6.17212491E-09
  323 6.20213846E-09
  324 6.19797167E-09
  325 6.22398398E-09
  326 6.25013531E-09
  327 6.27639998E-09
  328 6.30275316E-09
  329 6.32917090E-09
  330 7.17081864E-09
  331 5.88153622E-09
  332 5.83604502E-09
  333 5.71461808E-09
  334 5.69179971E-09
  335 5.76158683E-09
  336 5.80531316E-09
  337 5.78435080E-09
  338 5.80147084E-09
  339 5.78028898E-09
  340 5.76401817E-09
  341 5.74435077E-09
  342 5.75974055E-09
  343 5.73986172E-09
  344 5.71841630E-09
  345 5.73057279E-09
  346 5.71254414E-09
  347 5.70134925E-09
  348 5.68506936E-09
  349 5.69527765E-09
  350 5.67880565E-09
  351 5.72538369E-09
  352 5.70715146E-09
  353 5.72068823E-09
  354 5.70225528E-09
  355 5.68968791E-09
  356 5.67302605E-09
  357 5.68459736E-09
  358 5.66774812E-09
  359 5.69990835E-09
  360 5.68601032E-09
  361 5.69169145E-09
  362 5.67761257E-09
  363 5.67295002E-09
  364 5.66075218E-09
  365 5.66438113E-09
  366 5.65202245E-09
  367 5.68389080E-09
  368 5.66963208E-09
  369 5.67652363E-09
  370 5.66208630E-09
  371 5.65623042E-09
  372 5.64371171E-09
  373 5.64851553E-09
  374 5.63583779E-09
  375 5.64944018E-09
  376 5.63903592E-09
  377 5.64056044E-09
  378 5.63001753E-09
  379 5.62955972E-09
  380 5.62103020E-09
  381 5.62041450E-09
  382 5.61177043E-09
  383 5.63210043E-09
  384 5.62141949E-09
  385 5.62407811E-09
  386 5.61325994E-09
  387 5.61169018E-09
  388 5.60293204E-09
  389 5.60340506E-09
  390 5.59453345E-09
  391 5.66960735E-09
  392 5.65499285E-09
  393 5.66315953E-09
  394 5.64836954E-09
  395 5.64125429E-09
  396 5.62841871E-09
  397 5.63446471E-09
  398 5.62147269E-09
  399 5.65719788E-09
  400 5.64223430E-09
  401 5.65174023E-09
  402 5.63660522E-09
  403 5.62816496E-09
  404 5.61501810E-09
  405 5.62237335E-09
  406 5.60907345E-09
  407 5.61651171E-09
  408 5.60555727E-09
  409 5.60941963E-09
  410 5.59833004E-09
  411 5.59557766E-09
  412 5.58659332E-09
  413 5.58822669E-09
  414 5.57913050E-09
  415 5.60282042E-09
  416 5.59159699E-09
  417 5.59673281E-09
  418 5.58537703E-09
  419 5.58137108E-09
  420 5.57216406E-09
  421 5.57502988E-09
  422 5.56571320E-09
  423 5.61346426E-09
  424 5.60687691E-09
  425 5.60410261E-09
  426 5.59742643E-09
  427 5.60128127E-09
  428 5.59668847E-09
  429 5.59175532E-09
  430 5.58710067E-09
  431 5.59516275E-09
  432 5.58839808E-09
  433 5.58666322E-09
  434 5.57981049E-09
  435 5.58265177E-09
  436 5.57793550E-09
  437 5.57398934E-09
  438 5.56921173E-09
  439 5.59310760E-09
  440 5.59054569E-09
  441 5.58347181E-09
  442 5.58087593E-09
  443 5.58900763E-09
  444 5.58849619E-09
  445 5.57931803E-09
  446 5.57880095E-09
  447 5.57425881E-09
  448 5.57162906E-09
  449 5.56548742E-09
  450 5.56282394E-09
  451 5.57005138E-09
  452 5.56952867E-09
  453 5.56122655E-09
  454 5.56069821E-09
  455 5.57862277E-09
  456 5.57168253E-09
  457 5.57106041E-09
  458 5.56403329E-09
  459 5.56578699E-09
  460 5.56094839E-09
  461 5.55806390E-09
  462 5.55316473E-09
  463 5.56399530E-09
  464 5.55688207E-09
  465 5.55744680E-09
  466 5.55024832E-09
  467 5.55083944E-09
  468 5.54588020E-09
  469 5.54413318E-09
  470 5.53911445E-09
  471 5.55717672E-09
  472 5.55447968E-09
  473 5.54934601E-09
  474 5.54661564E-09
  475 5.55286267E-09
  476 5.55232871E-09
  477 5.54497912E-09
  478 5.54443955E-09
  479 5.54201483E-09
  480 5.53925137E-09
  481 5.53520284E-09
  482 5.53240659E-09
  483 5.53759547E-09
  484 5.53705029E-09
  485 5.53073146E-09
  486 5.53018069E-09
  487 5.58901199E-09
  488 5.59055350E-09
  489 5.57932533E-09
  490 5.58088959E-09
  491 5.59311705E-09
  492 5.59669685E-09
  493 5.58348996E-09
  494 5.58712051E-09
  495 5.57006157E-09
  496 5.57164848E-09
  497 5.56123958E-09
  498 5.56284900E-09
  499 5.57428552E-09
  500 5.57796661E-09
  501 5.56552251E-09
  502 5.56925388E-09
  503 5.60128504E-09
  504 5.60687171E-09
  505 5.59177318E-09
  506 5.59743779E-09
  507 5.61344494E-09
  508 5.62099090E-09
  509 5.60410216E-09
  510 5.61175209E-09
  511 5.58268349E-09
  512 5.58842574E-09
  513 5.57403463E-09
  514 5.57985409E-09
  515 5.59518085E-09
  516 5.60293431E-09
  517 5.58669946E-09
  518 5.59455586E-09
  519 5.55287847E-09
  520 5.55451025E-09
  521 5.54499760E-09
  522 5.54665153E-09
  523 5.55721998E-09
  524 5.56100129E-09
  525 5.54939719E-09
  526 5.55322803E-09
  527 5.53761653E-09
  528 5.53929239E-09
  529 5.53075498E-09
  530 5.53245251E-09
  531 5.54207362E-09
  532 5.54595352E-09
  533 5.53526890E-09
  534 5.53919733E-09
  535 5.56584549E-09
  536 5.57174165E-09
  537 5.55813517E-09
  538 5.56410742E-09
  539 5.57867667E-09
  540 5.58663531E-09
  541 5.57113136E-09
  542 5.57919141E-09
  543 5.55092301E-09
  544 5.55697062E-09
  545 5.54422847E-09
  546 5.55035062E-09
  547 5.56408264E-09
  548 5.57224311E-09
  549 5.55754973E-09
  550 5.56580951E-09
  551 5.62949391E-09
  552 5.63893650E-09
  553 5.62037153E-09
  554 5.62994256E-09
  555 5.64929950E-09
  556 5.66056215E-09
  557 5.64044558E-09
  558 5.65185931E-09
  559 5.61166964E-09
  560 5.62136853E-09
  561 5.60340644E-09
  562 5.61323244E-09
  563 5.63201089E-09
  564 5.64357494E-09
  565 5.62401329E-09
  566 5.63572672E-09
  567 5.67270221E-09
  568 5.68569602E-09
  569 5.66416099E-09
  570 5.67732640E-09
  571 5.69951864E-09
  572 5.71414396E-09
  573 5.69133002E-09
  574 5.70614516E-09
  575 5.65603739E-09
  576 5.66937345E-09
  577 5.64834889E-09
  578 5.66185445E-09
  579 5.68355703E-09
  580 5.69856083E-09
  581 5.67621673E-09
  582 5.69140780E-09
  583 5.59560033E-09
  584 5.60555252E-09
  585 5.58826992E-09
  586 5.59834723E-09
  587 5.61647085E-09
  588 5.62833253E-09
  589 5.60940184E-09
  590 5.62141044E-09
  591 5.58143399E-09
  592 5.59163518E-09
  593 5.57511149E-09
  594 5.58543514E-09
  595 5.60282468E-09
  596 5.61497868E-09
  597 5.59675796E-09
  598 5.60905562E-09
  599 5.64111317E-09
  600 5.65478687E-09
  601 5.63434810E-09
  602 5.64818834E-09
  603 5.66932634E-09
  604 5.68470306E-09
  605 5.66290329E-09
  606 5.67846379E-09
  607 5.62807169E-09
  608 5.64207666E-09
  609 5.62230208E-09
  610 5.63646971E-09
  611 5.65696510E-09
  612 5.67270726E-09
  613 5.65152943E-09
  614 5.66745087E-09
  615 5.72954482E-09
  616 5.74569310E-09
  617 5.72174402E-09
  618 5.73809788E-09
  619 5.76255988E-09
  620 5.78011551E-09
  621 5.75517716E-09
  622 5.77295158E-09
  623 5.71435643E-09
  624 5.73091448E-09
  625 5.70739863E-09
  626 5.72415924E-09
  627 5.74820476E-09
  628 5.76619634E-09
  629 5.74165875E-09
  630 5.75986560E-09
  631 5.79832975E-09
  632 5.81717189E-09
  633 5.79139026E-09
  634 5.81046185E-09
  635 5.83661086E-09
  636 5.85661532E-09
  637 5.83013463E-09
  638 5.85037665E-09
  639 5.78485770E-09
  640 5.80415685E-09
  641 5.77874761E-09
  642 5.79827215E-09
  643 5.82406143E-09
  644 5.84453884E-09
  645 5.81840620E-09
  646 5.83911655E-09
  647 5.70088738E-09
  648 5.71784865E-09
  649 5.69483957E-09
  650 5.71199934E-09
  651 5.73555537E-09
  652 5.75397531E-09
  653 5.72991095E-09
  654 5.74854152E-09
  655 5.68927222E-09
  656 5.70662806E-09
  657 5.68420246E-09
  658 5.70175163E-09
  659 5.72474196E-09
  660 5.74358040E-09
  661 5.72006493E-09
  662 5.73910817E-09
  663 5.77307565E-09
  664 5.79282310E-09
  665 5.76785757E-09
  666 5.78782517E-09
  667 5.81318401E-09
  668 5.83412454E-09
  669 5.80841002E-09
  670 5.82957764E-09
  671 5.76310924E-09
  672 5.78329389E-09
  673 5.75884657E-09
  674 5.77924487E-09
  675 5.80409944E-09
  676 5.82549074E-09
  677 5.80026753E-09
  678 5.82187878E-09
  679 5.87715379E-09
  680 5.89819473E-09
  681 5.87115580E-09
  682 5.89243994E-09
  683 5.91970667E-09
  684 5.94165825E-09
  685 5.91419699E-09
  686 5.93639505E-09
  687 5.86555637E-09
  688 5.88708127E-09
  689 5.86036986E-09
  690 5.88213278E-09
  691 5.90908087E-09
  692 5.93152269E-09
  693 5.90437204E-09
  694 5.92705459E-09
  695 5.96401836E-09
  696 5.98675620E-09
  697 5.95900244E-09
  698 5.98198783E-09
  699 6.00984136E-09
  700 6.03324387E-09
  701 6.00532029E-09
  702 6.02896938E-09
  703 5.95437451E-09
  704 5.97760445E-09
  705 5.95014765E-09
  706 5.97361884E-09
  707 6.00118109E-09
  708 6.02507349E-09
  709 5.99743620E-09
  710 6.05305616E-09
  711 5.85561072E-09
  712 5.87760858E-09
  713 5.85129345E-09
  714 5.87352287E-09
  715 5.90008429E-09
  716 5.92300421E-09
  717 5.89623148E-09
  718 5.91938508E-09
  719 5.84743261E-09
  720 5.86988987E-09
  721 5.84404279E-09
  722 5.86672382E-09
  723 5.89282750E-09
  724 5.91621075E-09
  725 5.88988624E-09
  726 5.91349475E-09
  727 5.94633503E-09
  728 5.97004381E-09
  729 5.94294981E-09
  730 5.96689220E-09
  731 5.99409811E-09
  732 6.04962169E-09
  733 5.99117933E-09
  734 6.04662797E-09
  735 5.94000519E-09
  736 5.96417687E-09
  737 5.93751438E-09
  738 5.96191066E-09
  739 6.01776428E-09
  740 6.04408753E-09
  741 6.01546127E-09
  742 6.04201282E-09
  743 6.05693431E-09
  744 6.11647903E-09
  745 6.08661248E-09
  746 6.11230370E-09
  747 6.14216576E-09
  748 6.16807103E-09
  749 6.13824054E-09
  750 6.16439337E-09
  751 6.08258431E-09
  752 6.10852390E-09
  753 6.07896774E-09
  754 6.10515148E-09
  755 6.13470684E-09
  756 6.16110310E-09
  757 6.13157617E-09
  758 6.15821140E-09
  759 6.19416636E-09
  760 6.22042409E-09
  761 6.19073335E-09
  762 6.21723247E-09
  763 6.24681738E-09
  764 6.27332023E-09
  765 6.24386356E-09
  766 6.27060035E-09
  767 6.18768349E-09
  768 6.21441963E-09
  769 6.18502760E-09
  770 6.21199607E-09
  771 6.24128405E-09
  772 6.26825020E-09
  773 6.23908902E-09
  774 6.26627963E-09
  775 6.07577496E-09
  776 6.10219829E-09
  777 6.07301816E-09
  778 6.09967615E-09
  779 6.12886004E-09
  780 6.15572942E-09
  781 6.12656991E-09
  782 6.15366828E-09
  783 6.07070947E-09
  784 6.09759684E-09
  785 6.06886099E-09
  786 6.09597209E-09
  787 6.12471721E-09
  788 6.15203904E-09
  789 6.12331329E-09
  790 6.15085269E-09
  791 6.18277650E-09
  792 6.20997226E-09
  793 6.18094096E-09
  794 6.20835863E-09
  795 6.23728861E-09
  796 6.26469845E-09
  797 6.23589290E-09
  798 6.26351639E-09
  799 6.17953170E-09
  800 6.20716553E-09
  801 6.17855933E-09
  802 6.20640326E-09
  803 6.23491189E-09
  804 6.26274313E-09
  805 6.23435552E-09
  806 6.26238826E-09
  807 6.29990756E-09
  808 6.32655515E-09
  809 6.29741747E-09
  810 6.32429047E-09
  811 6.35323973E-09
  812 6.37993892E-09
  813 6.35119587E-09
  814 6.37811109E-09
  815 6.29529244E-09
  816 6.32238611E-09
  817 6.29354201E-09
  818 6.32085126E-09
  819 6.34950748E-09
  820 6.37663382E-09
  821 6.34818346E-09
  822 6.37551570E-09
  823 6.40663128E-09
  824 6.43329629E-09
  825 6.40501453E-09
  826 6.43188553E-09
  827 6.45991438E-09
  828 6.48646687E-09
  829 6.45870438E-09
  830 6.48545231E-09
  831 6.40374336E-09
  832 6.43081530E-09
  833 6.40282605E-09
  834 6.43009360E-09
  835 6.45782983E-09
  836 6.48476806E-09
  837 6.45729841E-09
  838 6.48442152E-09
  839 6.29217564E-09
  840 6.31969507E-09
  841 6.29120275E-09
  842 6.31892664E-09
  843 6.34723264E-09
  844 6.37476524E-09
  845 6.34666377E-09
  846 6.37439089E-09
  847 6.29063267E-09
  848 6.31855496E-09
  849 6.29047464E-09
  850 6.31858894E-09
  851 6.34648554E-09
  852 6.37440101E-09
  853 6.34670652E-09
  854 6.37480384E-09
  855 6.40227083E-09
  856 6.42972834E-09
  857 6.40208581E-09
  858 6.42972734E-09
  859 6.45711775E-09
  860 6.48442002E-09
  861 6.45729538E-09
  862 6.48477080E-09
  863 6.40227903E-09
  864 6.43009834E-09
  865 6.40285844E-09
  866 6.43084896E-09
  867 6.45783872E-09
  868 6.48548100E-09
  869 6.45875510E-09
  870 6.48655763E-09
  871 6.51293600E-09
  872 6.51211148E-09
  873 6.53866497E-09
  874 6.56509675E-09
  875 6.59139169E-09
  876 6.51161209E-09
  877 6.53834494E-09
  878 6.51144495E-09
  879 6.53835167E-09
  880 6.56495054E-09
  881 6.59141374E-09
  882 6.56512559E-09
  883 6.59175152E-09
  884 6.61753552E-09
  885 6.64351481E-09
  886 6.66931696E-09
  887 6.69493017E-09
  888 6.61772025E-09
  889 6.64385666E-09
  890 6.61821519E-09
  891 6.64450320E-09
  892 6.66981039E-09
  893 6.69556967E-09
  894 6.67060298E-09
  895 6.69650281E-09
  896 6.51161711E-09
  897 6.53869194E-09
  898 6.51213552E-09
  899 6.53937241E-09
  900 6.56562839E-09
  901 6.59241127E-09
  902 6.56646535E-09
  903 6.59339914E-09
  904 6.51300702E-09
  905 6.54039967E-09
  906 6.51423837E-09
  907 6.54178017E-09
  908 6.56764278E-09
  909 6.59472117E-09
  910 6.56916685E-09
  911 6.59638326E-09
  912 6.61902632E-09
  913 6.64546014E-09
  914 6.62015953E-09
  915 6.64673314E-09
  916 6.67170021E-09
  917 6.69773484E-09
  918 6.67310749E-09
  919 6.69927094E-09
  920 6.62162059E-09
  921 6.64832772E-09
  922 6.62341517E-09
  923 6.65024929E-09
  924 6.67483011E-09
  925 6.70111616E-09
  926 6.67687322E-09
  927 6.70327544E-09
  928 6.72112351E-09
  929 6.74646168E-09
  930 6.72219174E-09
  931 6.74765962E-09
  932 6.77157471E-09
  933 6.79645380E-09
  934 6.77289701E-09
  935 6.79789522E-09
  936 6.82109086E-09
  937 6.84547844E-09
  938 6.82264622E-09
  939 6.84714265E-09
  940 6.86960970E-09
  941 6.89347842E-09
  942 6.87137777E-09
  943 6.89534547E-09
  944 6.72355315E-09
  945 6.74914503E-09
  946 6.72521267E-09
  947 6.75092264E-09
  948 6.77450113E-09
  949 6.79961283E-09
  950 6.77639158E-09
  951 6.80161094E-09
  952 6.72717514E-09
  953 6.75299706E-09
  954 6.72944525E-09
  955 6.75537278E-09
  956 6.77857274E-09
  957 6.80389373E-09
  958 6.78104891E-09
  959 6.80646529E-09
  960 6.82447219E-09
  961 6.84907194E-09
  962 6.82657288E-09
  963 6.85127022E-09
  964 6.87340544E-09
  965 6.89746668E-09
  966 6.87569643E-09
  967 6.89984560E-09
  968 6.82895227E-09
  969 6.85374129E-09
  970 6.83161426E-09
  971 6.85648885E-09
  972 6.87825437E-09
  973 6.90248568E-09
  974 6.88108275E-09
  975 6.90539025E-09
  976 6.91707895E-09
  977 6.94040617E-09
  978 6.91904017E-09
  979 6.94245688E-09
  980 6.96559111E-09
  981 6.98843886E-09
  982 7.01099662E-09
  983 7.03326129E-09
  984 7.05523022E-09
  985 7.07690115E-09
  986 6.92125019E-09
  987 6.94475108E-09
  988 6.92371237E-09
  989 6.94729197E-09
  990 6.96796497E-09
  991 6.99088799E-09
  992 6.97058012E-09
  993 6.99357307E-09
  994 6.92643000E-09
  995 6.95008266E-09
  996 6.92940624E-09
  997 6.95312616E-09
  998 6.97343951E-09
  999 6.99649691E-09
  1000 6.97654598E-09
  1001 6.99966220E-09
  1002 7.01351673E-09
  1003 7.03584821E-09
  1004 7.01626753E-09
  1005 7.03866065E-09
  1006 7.05787991E-09
  1007 7.07960966E-09
  1008 7.06074999E-09
  1009 7.08253354E-09
  1010 7.01925168E-09
  1011 7.04170110E-09
  1012 7.02247174E-09
  1013 7.04497200E-09
  1014 7.06384287E-09
  1015 7.08567505E-09
  1016 7.06716081E-09
  1017 7.08903636E-09
  1018 7.09827217E-09
  1019 7.11934175E-09
  1020 7.14010866E-09
  1021 7.16057201E-09
  1022 7.17301892E-09
  1023 7.17540312E-09
  1024 7.17797323E-09
  1025 7.18073117E-09
  1026 7.20058580E-09
  1027 7.22013580E-09
  1028 7.23938129E-09
  1029 7.10103568E-09
  1030 7.12215656E-09
  1031 7.10400963E-09
  1032 7.12517694E-09
  1033 7.14297119E-09
  1034 7.16347878E-09
  1035 7.14603450E-09
  1036 7.16658163E-09
  1037 7.10719613E-09
  1038 7.12840490E-09
  1039 7.11059724E-09
  1040 7.13184236E-09
  1041 7.14930050E-09
  1042 7.16988236E-09
  1043 7.15277099E-09
  1044 7.17338267E-09
  1045 7.18367882E-09
  1046 7.20357107E-09
  1047 7.18681793E-09
  1048 7.20674327E-09
  1049 7.22315554E-09
  1050 7.24243249E-09
  1051 7.22635778E-09
  1052 7.24566181E-09
  1053 7.19015020E-09
  1054 7.21010401E-09
  1055 7.19367724E-09
  1056 7.21365480E-09
  1057 7.22974402E-09
  1058 7.24907068E-09
  1059 7.23331567E-09
  1060 7.25266043E-09
  1061 7.25832265E-09
  1062 7.27696040E-09
  1063 7.29727526E-09
  1064 7.29529531E-09
  1065 7.30031921E-09
  1066 7.31494901E-09
  1067 7.33232727E-09
  1068 7.31801433E-09
  1069 7.33541142E-09
  1070 7.34941123E-09
  1071 7.36620222E-09
  1072 7.35251178E-09
  1073 7.36931684E-09
  1074 7.26140235E-09
  1075 7.28006580E-09
  1076 7.26465592E-09
  1077 7.28334086E-09
  1078 7.28550825E-09
  1079 7.30352260E-09
  1080 7.28885619E-09
  1081 7.30688657E-09
  1082 7.26808466E-09
  1083 7.28678683E-09
  1084 7.27168985E-09
  1085 7.27769008E-09
  1086 7.29236989E-09
  1087 7.31041225E-09
  1088 7.29605047E-09
  1089 7.31410064E-09
  1090 7.32123522E-09
  1091 7.33864738E-09
  1092 7.32461279E-09
  1093 7.34203617E-09
  1094 7.35576046E-09
  1095 7.37257596E-09
  1096 7.35915820E-09
  1097 7.37598047E-09
  1098 7.32814806E-09
  1099 7.34557876E-09
  1100 7.33184198E-09
  1101 7.34927603E-09
  1102 7.36270592E-09
  1103 7.37953121E-09
  1104 7.36640443E-09
  1105 7.38322896E-09
  1106 7.38270170E-09
  1107 7.39891122E-09
  1108 7.38582813E-09
  1109 7.40204727E-09
  1110 7.41483242E-09
  1111 7.43046704E-09
  1112 7.41797601E-09
  1113 7.43361614E-09
  1114 7.44581687E-09
  1115 7.46088381E-09
  1116 7.44896954E-09
  1117 7.46403818E-09
  1118 7.47882406E-09
  1119 7.49332923E-09
  1120 7.38909551E-09
  1121 7.40532082E-09
  1122 7.39250468E-09
  1123 7.40873263E-09
  1124 7.42125369E-09
  1125 7.43689602E-09
  1126 7.42466621E-09
  1127 7.44030737E-09
  1128 7.39605643E-09
  1129 7.41228345E-09
  1130 7.39975147E-09
  1131 7.41597393E-09
  1132 7.42821423E-09
  1133 7.44385082E-09
  1134 7.43189837E-09
  1135 7.44752692E-09
  1136 7.45224976E-09
  1137 7.46731693E-09
  1138 7.45565816E-09
  1139 7.47072065E-09
  1140 7.48209962E-09
  1141 7.49659993E-09
  1142 7.48549700E-09
  1143 7.49998939E-09
  1144 7.45919531E-09
  1145 7.47424986E-09
  1146 7.46286174E-09
  1147 7.47790505E-09
  1148 7.48901669E-09
  1149 7.50349806E-09
  1150 7.49265915E-09
  1151 7.50712634E-09
  1152 7.51836207E-09
  1153 7.50755580E-09
  1154 7.52150591E-09
  1155 7.53518172E-09
  1156 7.54858544E-09
  1157 7.56661579E-09
  1158 7.59183087E-09
  1159 7.51082004E-09
  1160 7.52476215E-09
  1161 7.51420005E-09
  1162 7.52813125E-09
  1163 7.53842850E-09
  1164 7.55182132E-09
  1165 7.54178526E-09
  1166 7.55516440E-09
  1167 7.51769624E-09
  1168 7.53161356E-09
  1169 7.52130897E-09
  1170 7.53520943E-09
  1171 7.54525236E-09
  1172 7.55861500E-09
  1173 7.54883009E-09
  1174 7.56217339E-09
  1175 7.56494289E-09
  1176 7.57779550E-09
  1177 7.56827099E-09
  1178 7.58110736E-09
  1179 7.59038144E-09
  1180 7.60270301E-09
  1181 7.59367586E-09
  1182 7.60597883E-09
  1183 7.57170386E-09
  1184 7.58452132E-09
  1185 7.57524175E-09
  1186 7.58803759E-09
  1187 7.59706976E-09
  1188 7.60935158E-09
  1189 7.60056334E-09
  1190 7.61282144E-09
  1191 7.61476251E-09
  1192 7.62656223E-09
  1193 7.61801861E-09
  1194 7.62979754E-09
  1195 7.64131794E-09
  1196 7.65258215E-09
  1197 7.62136916E-09
  1198 7.63312487E-09
  1199 7.62481431E-09
  1200 7.63654437E-09
  1201 7.64462109E-09
  1202 7.65586017E-09
  1203 7.64801402E-09
  1204 7.65922565E-09
  1205 7.66684445E-09
  1206 7.67757625E-09
  1207 7.67018164E-09
  1208 7.68088433E-09
  1209 7.68805788E-09
  1210 7.69133605E-09
  1211 7.70153913E-09
  1212 7.71477296E-09
  1213 6.02504675E-09
  1214 6.13938649E-09
  1215 6.08015344E-09
  1216 6.03918835E-09
  1217 6.01263394E-09
  1218 6.04046982E-09
  1219 6.01373053E-09
  1220 6.09673453E-09
  1221 6.06940684E-09
  1222 6.09938636E-09
  1223 6.07189686E-09
  1224 6.04226744E-09
  1225 6.01535111E-09
  1226 6.04459202E-09
  1227 6.01750692E-09
  1228 5.92465415E-09
  1229 5.97306574E-09
  1230 5.93523715E-09
  1231 5.91036612E-09
  1232 5.93470889E-09
  1233 5.90963124E-09
  1234 5.88934068E-09
  1235 5.86576705E-09
  1236 5.88737173E-09
  1237 5.86357970E-09
  1238 5.84268170E-09
  1239 5.82012175E-09
  1240 5.84027681E-09
  1241 5.81750077E-09
  1242 5.88590926E-09
  1243 5.86190420E-09
  1244 5.88496716E-09
  1245 5.86075481E-09
  1246 5.83838896E-09
  1247 5.81540183E-09
  1248 5.83703277E-09
  1249 5.81383992E-09
  1250 5.98634397E-09
  1251 5.96035438E-09
  1252 5.98725294E-09
  1253 5.96107341E-09
  1254 5.93470195E-09
  1255 5.90942416E-09
  1256 5.93522915E-09
  1257 5.90975810E-09
  1258 5.98869364E-09
  1259 5.96233177E-09
  1260 5.99067770E-09
  1261 5.96414148E-09
  1262 5.93630312E-09
  1263 5.91064610E-09
  1264 5.93793629E-09
  1265 5.91210097E-09
  1266 5.88455917E-09
  1267 5.86014567E-09
  1268 5.88469891E-09
  1269 5.86009078E-09
  1270 5.83622278E-09
  1271 5.81282995E-09
  1272 5.83597338E-09
  1273 5.81238670E-09
  1274 5.88539981E-09
  1275 5.86060398E-09
  1276 5.88667510E-09
  1277 5.86169888E-09
  1278 5.83629878E-09
  1279 5.81252479E-09
  1280 5.83721303E-09
  1281 5.81325864E-09
  1282 5.79812444E-09
  1283 5.77672699E-09
  1284 5.79528943E-09
  1285 5.77368064E-09
  1286 5.75596649E-09
  1287 5.73587975E-09
  1288 5.75271212E-09
  1289 5.73242136E-09
  1290 5.79298126E-09
  1291 5.77116573E-09
  1292 5.79121529E-09
  1293 5.76919800E-09
  1294 5.74999361E-09
  1295 5.72950300E-09
  1296 5.74782702E-09
  1297 5.72714112E-09
  1298 5.71650320E-09
  1299 5.69787268E-09
  1300 5.71284540E-09
  1301 5.69402078E-09
  1302 5.68002335E-09
  1303 5.66298951E-09
  1304 5.67598330E-09
  1305 5.65876793E-09
  1306 5.70973164E-09
  1307 5.69071669E-09
  1308 5.70717868E-09
  1309 5.68797751E-09
  1310 5.67249463E-09
  1311 5.65510109E-09
  1312 5.66957476E-09
  1313 5.65200670E-09
  1314 5.79000682E-09
  1315 5.76779309E-09
  1316 5.78937099E-09
  1317 5.76696653E-09
  1318 5.74622838E-09
  1319 5.72535208E-09
  1320 5.74521357E-09
  1321 5.72415214E-09
  1322 5.78932280E-09
  1323 5.76673371E-09
  1324 5.78987707E-09
  1325 5.76710981E-09
  1326 5.74479836E-09
  1327 5.72355740E-09
  1328 5.74499830E-09
  1329 5.72358381E-09
  1330 5.70520323E-09
  1331 5.68582028E-09
  1332 5.70382188E-09
  1333 5.68426194E-09
  1334 5.66724104E-09
  1335 5.64950242E-09
  1336 5.66551073E-09
  1337 5.64760584E-09
  1338 5.70305112E-09
  1339 5.68331929E-09
  1340 5.70290724E-09
  1341 5.68300899E-09
  1342 5.66440098E-09
  1343 5.64633441E-09
  1344 5.66392878E-09
  1345 5.64570544E-09
  1346 5.64680450E-09
  1347 5.63150046E-09
  1348 5.64240865E-09
  1349 5.62693824E-09
  1350 5.61710827E-09
  1351 5.60365738E-09
  1352 5.61238820E-09
  1353 5.59878857E-09
  1354 5.63857068E-09
  1355 5.62293683E-09
  1356 5.63530859E-09
  1357 5.61951450E-09
  1358 5.60823165E-09
  1359 5.59448579E-09
  1360 5.60465716E-09
  1361 5.59076780E-09
  1362 5.59117563E-09
  1363 5.57968916E-09
  1364 5.58616778E-09
  1365 5.57455251E-09
  1366 5.56922227E-09
  1367 5.55979727E-09
  1368 5.56396756E-09
  1369 5.55443571E-09
  1370 5.58172824E-09
  1371 5.56998624E-09
  1372 5.57787600E-09
  1373 5.56600954E-09
  1374 5.55928508E-09
  1375 5.54964805E-09
  1376 5.55519424E-09
  1377 5.54545383E-09
  1378 5.63264034E-09
  1379 5.61668948E-09
  1380 5.63058379E-09
  1381 5.61447994E-09
  1382 5.60168320E-09
  1383 5.58765334E-09
  1384 5.59932823E-09
  1385 5.58516110E-09
  1386 5.62915674E-09
  1387 5.61290394E-09
  1388 5.62837679E-09
  1389 5.61197940E-09
  1390 5.59761058E-09
  1391 5.58330968E-09
  1392 5.59654845E-09
  1393 5.58211754E-09
  1394 5.57463003E-09
  1395 5.56264161E-09
  1396 5.57200926E-09
  1397 5.55990159E-09
  1398 5.55171440E-09
  1399 5.54187263E-09
  1400 5.54886492E-09
  1401 5.53892394E-09
  1402 5.57003253E-09
  1403 5.55780853E-09
  1404 5.56871854E-09