# File generated by Flopy version 3.9.1 on 01/19/2026 at 23:12:06.
BEGIN options
  BUDGET  FILEOUT  quadtree_caseB.cbc
  HEAD  FILEOUT  quadtree_caseB.hds
END options

BEGIN period  1
  SAVE  HEAD  LAST
  SAVE  BUDGET  LAST
  PRINT  BUDGET  LAST
END period  1

