# File generated by Flopy version 3.9.1 on 01/31/2026 at 08:50:59.
BEGIN options
  SAVE_FLOWS
END options

BEGIN dimensions
  MAXBOUND  18987
  NSEG  1
END dimensions

BEGIN period  1
  417       6.00000000  4.25859920E-09       4.00000000
  418       6.00000000  4.04451200E-09       4.00000000
  429       3.00000000  4.04451200E-09       4.00000000
  430       3.00000000  4.04451200E-09       4.00000000
  432       3.00000000  4.04451200E-09       4.00000000
  433       3.00000000  4.04451200E-09       4.00000000
  434       3.00000000  4.04451200E-09       4.00000000
  443      10.00000000  4.04451200E-09       4.00000000
  444      10.00000000  4.04451200E-09       4.00000000
  445      10.00000000  4.04451200E-09       4.00000000
  446      10.00000000  4.04451200E-09       4.00000000
  447      10.00000000  4.04451200E-09       4.00000000
  456       7.00000000  4.04451200E-09       4.00000000
  457       7.00000000  4.04451200E-09       4.00000000
  458       7.00000000  4.04451200E-09       4.00000000
  459       7.00000000  4.04451200E-09       4.00000000
  462       7.00000000  4.04451200E-09       4.00000000
  463       7.00000000  3.92212827E-09       4.00000000
  492       1.00000000  3.92212827E-09       4.00000000
  503       0.00000000  3.92212827E-09       4.00000000
  504       0.00000000  3.92212827E-09       4.00000000
  506       0.00000000  3.92212827E-09       4.00000000
  507       0.00000000  3.92212827E-09       4.00000000
  508       0.00000000  3.92212827E-09       4.00000000
  517       7.00000000  3.85550740E-09       4.00000000
  518       7.00000000  3.85550740E-09       4.00000000
  519       7.00000000  3.85550740E-09       4.00000000
  520       7.00000000  3.85550740E-09       4.00000000
  521       7.00000000  3.85550740E-09       4.00000000
  527       7.00000000  3.85550740E-09       4.00000000
  528       7.00000000  3.85550740E-09       4.00000000
  529       7.00000000  3.85550740E-09       4.00000000
  530       7.00000000  3.85550740E-09       4.00000000
  531       7.00000000  3.85550740E-09       4.00000000
  534       5.00000000  3.85550740E-09       4.00000000
  535       5.00000000  3.85550740E-09       4.00000000
  536       5.00000000  3.85550740E-09       4.00000000
  537       5.00000000  3.85550740E-09       4.00000000
  538       5.00000000  3.85550740E-09       4.00000000
  539       5.00000000  3.85550740E-09       4.00000000
  540       5.00000000  3.85550740E-09       4.00000000
  541       5.00000000  3.85550740E-09       4.00000000
  544       6.00000000  3.82250655E-09       4.00000000
  545       6.00000000  3.82250655E-09       4.00000000
  546       6.00000000  3.82250655E-09       4.00000000
  547       6.00000000  3.82250655E-09       4.00000000
  548       6.00000000  3.82250655E-09       4.00000000
  551       3.00000000  3.82250655E-09       4.00000000
  552       3.00000000  3.82250655E-09       4.00000000
  553       3.00000000  3.82250655E-09       4.00000000
  554       3.00000000  3.82250655E-09       4.00000000
  555       3.00000000  3.82250655E-09       4.00000000
  556       3.00000000  3.82250655E-09       4.00000000
  557       3.00000000  3.82250655E-09       4.00000000
  558       3.00000000  3.82250655E-09       4.00000000
  564       4.00000000  3.82250655E-09       4.00000000
  565       4.00000000  3.82250655E-09       4.00000000
  566       4.00000000  3.82250655E-09       4.00000000
  567       4.00000000  3.82250655E-09       4.00000000
  568       4.00000000  3.82250655E-09       4.00000000
  574       1.00000000  3.78021358E-09       4.00000000
  575       1.00000000  3.78021358E-09       4.00000000
  576       1.00000000  3.78021358E-09       4.00000000
  577       1.00000000  3.78021358E-09       4.00000000
  578       1.00000000  3.78021358E-09       4.00000000
  587       3.00000000  3.78021358E-09       4.00000000
  588       3.00000000  3.78021358E-09       4.00000000
  597       8.00000000  3.78021358E-09       4.00000000
  598       8.00000000  3.78021358E-09       4.00000000
  599       8.00000000  3.78021358E-09       4.00000000
  600       8.00000000  3.78021358E-09       4.00000000
  601       8.00000000  3.78021358E-09       4.00000000
  611       4.00000000  3.92601394E-09       4.00000000
  612       4.00000000  3.78021358E-09       4.00000000
  613       4.00000000  3.92601394E-09       4.00000000
  616       4.00000000  3.92601394E-09       4.00000000
  617       4.00000000  3.92601394E-09       4.00000000
  628       9.00000000  3.92601394E-09       4.00000000
  629       9.00000000  3.92601394E-09       4.00000000
  630       9.00000000  3.92601394E-09       4.00000000
  631       9.00000000  3.92601394E-09       4.00000000
  632       9.00000000  3.92601394E-09       4.00000000
  633       9.00000000  3.92601394E-09       4.00000000
  642       7.00000000  3.92601394E-09       4.00000000
  643       7.00000000  3.92601394E-09       4.00000000
  644       7.00000000  3.92601394E-09       4.00000000
  645       7.00000000  3.92601394E-09       4.00000000
  648       7.00000000  3.92601394E-09       4.00000000
  649       7.00000000  3.92601394E-09       4.00000000
  660       2.00000000  3.92601394E-09       4.00000000
  700      10.00000000  4.18587270E-09       4.00000000
  711       9.00000000  4.18587270E-09       4.00000000
  712       9.00000000  4.18587270E-09       4.00000000
  715       9.00000000  4.18587270E-09       4.00000000
  716       9.00000000  4.25859920E-09       4.00000000
  727       8.00000000  4.25859920E-09       4.00000000
  728       8.00000000  4.25859920E-09       4.00000000
  729       8.00000000  4.25859920E-09       4.00000000
  730       8.00000000  4.25859920E-09       4.00000000
  731       8.00000000  4.25859920E-09       4.00000000
  732       8.00000000  4.25859920E-09       4.00000000
  735       9.00000000  4.25859920E-09       4.00000000
  736       9.00000000  4.25859920E-09       4.00000000
  738       9.00000000  4.25859920E-09       4.00000000
  739       9.00000000  4.25859920E-09       4.00000000
  740       9.00000000  4.25859920E-09       4.00000000
  741       9.00000000  4.25859920E-09       4.00000000
  742       9.00000000  4.25859920E-09       4.00000000
  743       9.00000000  4.25859920E-09       4.00000000
  744       9.00000000  4.25859920E-09       4.00000000
  745       9.00000000  4.25859920E-09       4.00000000
  746       9.00000000  4.25859920E-09       4.00000000
  747       9.00000000  4.04451200E-09       4.00000000
  748       9.00000000  4.25859920E-09       4.00000000
  749       9.00000000  4.04451200E-09       4.00000000
  750      10.00000000  4.04451200E-09       4.00000000
  751      10.00000000  4.04451200E-09       4.00000000
  752      10.00000000  4.04451200E-09       4.00000000
  753      10.00000000  4.04451200E-09       4.00000000
  754       9.00000000  4.04451200E-09       4.00000000
  755       9.00000000  4.04451200E-09       4.00000000
  756       9.00000000  4.04451200E-09       4.00000000
  757       9.00000000  4.04451200E-09       4.00000000
  758       4.00000000  4.04451200E-09       4.00000000
  759       4.00000000  4.04451200E-09       4.00000000
  760       4.00000000  4.04451200E-09       4.00000000
  761       4.00000000  4.04451200E-09       4.00000000
  762       4.00000000  3.92212827E-09       4.00000000
  763       4.00000000  3.92212827E-09       4.00000000
  764       4.00000000  3.92212827E-09       4.00000000
  765       4.00000000  3.92212827E-09       4.00000000
  766       4.00000000  3.92212827E-09       4.00000000
  767       4.00000000  3.92212827E-09       4.00000000
  768       4.00000000  3.92212827E-09       4.00000000
  769       4.00000000  3.92212827E-09       4.00000000
  770       4.00000000  3.92212827E-09       4.00000000
  771       4.00000000  3.92212827E-09       4.00000000
  772       4.00000000  3.92212827E-09       4.00000000
  773       3.00000000  3.92212827E-09       4.00000000
  774       3.00000000  3.92212827E-09       4.00000000
  775       3.00000000  3.92212827E-09       4.00000000
  776       3.00000000  3.92212827E-09       4.00000000
  777       2.00000000  3.85550740E-09       4.00000000
  778       2.00000000  3.85550740E-09       4.00000000
  779       2.00000000  3.85550740E-09       4.00000000
  780       2.00000000  3.85550740E-09       4.00000000
  781       4.00000000  3.85550740E-09       4.00000000
  782       4.00000000  3.85550740E-09       4.00000000
  783       4.00000000  3.85550740E-09       4.00000000
  784       4.00000000  3.85550740E-09       4.00000000
  785       4.00000000  3.85550740E-09       4.00000000
  786       4.00000000  3.85550740E-09       4.00000000
  787       4.00000000  3.85550740E-09       4.00000000
  788       4.00000000  3.85550740E-09       4.00000000
  789       4.00000000  3.85550740E-09       4.00000000
  790       4.00000000  3.85550740E-09       4.00000000
  791       6.00000000  3.85550740E-09       4.00000000
  792       6.00000000  3.85550740E-09       4.00000000
  793       6.00000000  3.85550740E-09       4.00000000
  794       6.00000000  3.85550740E-09       4.00000000
  795       6.00000000  3.85550740E-09       4.00000000
  796       6.00000000  3.85550740E-09       4.00000000
  797       6.00000000  3.85550740E-09       4.00000000
  798       6.00000000  3.85550740E-09       4.00000000
  799       6.00000000  3.85550740E-09       4.00000000
  800       6.00000000  3.85550740E-09       4.00000000
  801       5.00000000  3.82250655E-09       4.00000000
  802       5.00000000  3.82250655E-09       4.00000000
  803       5.00000000  3.82250655E-09       4.00000000
  804       5.00000000  3.82250655E-09       4.00000000
  805       5.00000000  3.82250655E-09       4.00000000
  806       5.00000000  3.82250655E-09       4.00000000
  807       5.00000000  3.82250655E-09       4.00000000
  808       5.00000000  3.82250655E-09       4.00000000
  809       5.00000000  3.82250655E-09       4.00000000
  810       5.00000000  3.82250655E-09       4.00000000
  811       5.00000000  3.82250655E-09       4.00000000
  812       5.00000000  3.82250655E-09       4.00000000
  813       5.00000000  3.82250655E-09       4.00000000
  814       2.00000000  3.82250655E-09       4.00000000
  815       2.00000000  3.82250655E-09       4.00000000
  816       2.00000000  3.82250655E-09       4.00000000
  817       2.00000000  3.82250655E-09       4.00000000
  818       2.00000000  3.82250655E-09       4.00000000
  819       2.00000000  3.82250655E-09       4.00000000
  820       2.00000000  3.82250655E-09       4.00000000
  821       2.00000000  3.82250655E-09       4.00000000
  822       2.00000000  3.82250655E-09       4.00000000
  823       2.00000000  3.82250655E-09       4.00000000
  824       2.00000000  3.82250655E-09       4.00000000
  825       2.00000000  3.82250655E-09       4.00000000
  826       2.00000000  3.82250655E-09       4.00000000
  827       5.00000000  3.82250655E-09       4.00000000
  828       5.00000000  3.82250655E-09       4.00000000
  829       5.00000000  3.82250655E-09       4.00000000
  830       5.00000000  3.82250655E-09       4.00000000
  831       5.00000000  3.82250655E-09       4.00000000
  832       5.00000000  3.82250655E-09       4.00000000
  833       5.00000000  3.82250655E-09       4.00000000
  834       4.00000000  3.78021358E-09       4.00000000
  835       4.00000000  3.78021358E-09       4.00000000
  836       4.00000000  3.78021358E-09       4.00000000
  837       4.00000000  3.78021358E-09       4.00000000
  838       4.00000000  3.78021358E-09       4.00000000
  839       4.00000000  3.78021358E-09       4.00000000
  840       4.00000000  3.78021358E-09       4.00000000
  841       8.00000000  3.78021358E-09       4.00000000
  842       8.00000000  3.78021358E-09       4.00000000
  843       8.00000000  3.78021358E-09       4.00000000
  844       8.00000000  3.78021358E-09       4.00000000
  845       8.00000000  3.78021358E-09       4.00000000
  846       8.00000000  3.78021358E-09       4.00000000
  847       8.00000000  3.78021358E-09       4.00000000
  848       8.00000000  3.78021358E-09       4.00000000
  849       9.00000000  3.92601394E-09       4.00000000
  850       9.00000000  3.92601394E-09       4.00000000
  851       9.00000000  3.92601394E-09       4.00000000
  852       9.00000000  3.92601394E-09       4.00000000
  853       9.00000000  3.92601394E-09       4.00000000
  854       9.00000000  3.92601394E-09       4.00000000
  855       9.00000000  3.92601394E-09       4.00000000
  856       9.00000000  3.92601394E-09       4.00000000
  857      12.00000000  3.92601394E-09       4.00000000
  858      12.00000000  3.92601394E-09       4.00000000
  859      12.00000000  3.92601394E-09       4.00000000
  860      12.00000000  3.92601394E-09       4.00000000
  861       9.00000000  3.92601394E-09       4.00000000
  862       9.00000000  3.96914778E-09       4.00000000
  863       9.00000000  3.92601394E-09       4.00000000
  864       9.00000000  3.96914778E-09       4.00000000
  867       9.00000000  3.96914778E-09       4.00000000
  869       9.00000000  3.96914778E-09       4.00000000
  870       9.00000000  3.96914778E-09       4.00000000
  872       9.00000000  3.96914778E-09       4.00000000
  873       9.00000000  3.96914778E-09       4.00000000
  940       9.00000000  4.18587270E-09       4.00000000
  941       9.00000000  4.18587270E-09       4.00000000
  942       9.00000000  4.18587270E-09       4.00000000
  948       9.00000000  4.18587270E-09       4.00000000
  950       9.00000000  4.18587270E-09       4.00000000
  951       9.00000000  4.18587270E-09       4.00000000
  952       9.00000000  4.18587270E-09       4.00000000
  953       9.00000000  4.18587270E-09       4.00000000
  954       9.00000000  4.18587270E-09       4.00000000
  955       9.00000000  4.18587270E-09       4.00000000
  956       9.00000000  4.18587270E-09       4.00000000
  957       9.00000000  4.18587270E-09       4.00000000
  958      10.00000000  4.18587270E-09       4.00000000
  959      10.00000000  4.25859920E-09       4.00000000
  960      10.00000000  4.18587270E-09       4.00000000
  961      10.00000000  4.25859920E-09       4.00000000
  962       9.00000000  4.25859920E-09       4.00000000
  963       9.00000000  4.25859920E-09       4.00000000
  964       9.00000000  4.25859920E-09       4.00000000
  965       9.00000000  4.25859920E-09       4.00000000
  966       8.00000000  4.25859920E-09       4.00000000
  967       8.00000000  4.25859920E-09       4.00000000
  968       8.00000000  4.25859920E-09       4.00000000
  969       8.00000000  4.25859920E-09       4.00000000
  970       5.00000000  4.25859920E-09       4.00000000
  971       8.00000000  4.04451200E-09       4.00000000
  972       8.00000000  4.04451200E-09       4.00000000
  973       8.00000000  4.04451200E-09       4.00000000
  974       8.00000000  4.04451200E-09       4.00000000
  975       7.00000000  4.04451200E-09       4.00000000
  976       7.00000000  4.04451200E-09       4.00000000
  977       5.00000000  3.92212827E-09       4.00000000
  978       6.00000000  3.92212827E-09       4.00000000
  979       6.00000000  3.92212827E-09       4.00000000
  980       6.00000000  3.92212827E-09       4.00000000
  981       6.00000000  3.92212827E-09       4.00000000
  982       0.00000000  3.92212827E-09       4.00000000
  983       0.00000000  3.92212827E-09       4.00000000
  984       0.00000000  3.92212827E-09       4.00000000
  985       0.00000000  3.92212827E-09       4.00000000
  986       0.00000000  3.92212827E-09       4.00000000
  987       0.00000000  3.92212827E-09       4.00000000
  988       0.00000000  3.92212827E-09       4.00000000
  989       0.00000000  3.92212827E-09       4.00000000
  990       0.00000000  3.92212827E-09       4.00000000
  991       0.00000000  3.92212827E-09       4.00000000
  992       7.00000000  3.85550740E-09       4.00000000
  993       7.00000000  3.85550740E-09       4.00000000
  994       7.00000000  3.85550740E-09       4.00000000
  995       7.00000000  3.85550740E-09       4.00000000
  996       7.00000000  3.85550740E-09       4.00000000
  997       7.00000000  3.85550740E-09       4.00000000
  998       7.00000000  3.85550740E-09       4.00000000
  999       8.00000000  3.85550740E-09       4.00000000
  1000       8.00000000  3.85550740E-09       4.00000000
  1001       8.00000000  3.85550740E-09       4.00000000
  1002       8.00000000  3.85550740E-09       4.00000000
  1003       8.00000000  3.85550740E-09       4.00000000
  1004       8.00000000  3.85550740E-09       4.00000000
  1005       8.00000000  3.85550740E-09       4.00000000
  1006       8.00000000  3.85550740E-09       4.00000000
  1007       8.00000000  3.85550740E-09       4.00000000
  1008       8.00000000  3.85550740E-09       4.00000000
  1009       8.00000000  3.85550740E-09       4.00000000
  1010       8.00000000  3.85550740E-09       4.00000000
  1011       8.00000000  3.85550740E-09       4.00000000
  1012       8.00000000  3.85550740E-09       4.00000000
  1013       8.00000000  3.85550740E-09       4.00000000
  1014       8.00000000  3.85550740E-09       4.00000000
  1015       8.00000000  3.85550740E-09       4.00000000
  1016       8.00000000  3.85550740E-09       4.00000000
  1017       8.00000000  3.85550740E-09       4.00000000
  1018       8.00000000  3.85550740E-09       4.00000000
  1019       4.00000000  3.82250655E-09       4.00000000
  1020       4.00000000  3.82250655E-09       4.00000000
  1021       4.00000000  3.82250655E-09       4.00000000
  1022       4.00000000  3.82250655E-09       4.00000000
  1023       4.00000000  3.82250655E-09       4.00000000
  1024       4.00000000  3.82250655E-09       4.00000000
  1025       4.00000000  3.82250655E-09       4.00000000
  1026       4.00000000  3.82250655E-09       4.00000000
  1027       4.00000000  3.82250655E-09       4.00000000
  1028       4.00000000  3.82250655E-09       4.00000000
  1029       5.00000000  3.82250655E-09       4.00000000
  1030       5.00000000  3.82250655E-09       4.00000000
  1031       5.00000000  3.82250655E-09       4.00000000
  1032       5.00000000  3.82250655E-09       4.00000000
  1033       5.00000000  3.82250655E-09       4.00000000
  1034       5.00000000  3.82250655E-09       4.00000000
  1035       5.00000000  3.82250655E-09       4.00000000
  1036       5.00000000  3.82250655E-09       4.00000000
  1037       5.00000000  3.82250655E-09       4.00000000
  1038       5.00000000  3.82250655E-09       4.00000000
  1039       6.00000000  3.82250655E-09       4.00000000
  1040       6.00000000  3.82250655E-09       4.00000000
  1041       6.00000000  3.82250655E-09       4.00000000
  1042       6.00000000  3.82250655E-09       4.00000000
  1043       6.00000000  3.82250655E-09       4.00000000
  1044       6.00000000  3.82250655E-09       4.00000000
  1045       6.00000000  3.82250655E-09       4.00000000
  1046       5.00000000  3.78021358E-09       4.00000000
  1047       5.00000000  3.78021358E-09       4.00000000
  1048       5.00000000  3.78021358E-09       4.00000000
  1049       5.00000000  3.78021358E-09       4.00000000
  1050       5.00000000  3.78021358E-09       4.00000000
  1051       5.00000000  3.78021358E-09       4.00000000
  1052       5.00000000  3.78021358E-09       4.00000000
  1053      11.00000000  3.78021358E-09       4.00000000
  1054      13.00000000  3.78021358E-09       4.00000000
  1055      13.00000000  3.92601394E-09       4.00000000
  1056      12.00000000  3.92601394E-09       4.00000000
  1057      12.00000000  3.92601394E-09       4.00000000
  1058       3.00000000  3.96914778E-09       4.00000000
  1059       3.00000000  3.96914778E-09       4.00000000
  1060       3.00000000  3.96914778E-09       4.00000000
  1061       3.00000000  3.96914778E-09       4.00000000
  1062       3.00000000  3.96914778E-09       4.00000000
  1063       3.00000000  3.96914778E-09       4.00000000
  1064       3.00000000  3.96914778E-09       4.00000000
  1067      10.00000000  3.96914778E-09       4.00000000
  1068      10.00000000  3.96914778E-09       4.00000000
  1073      10.00000000  3.96914778E-09       4.00000000
  1074      10.00000000  3.96914778E-09       4.00000000
  1075      10.00000000  3.96914778E-09       4.00000000
  1076      10.00000000  3.96914778E-09       4.00000000
  1077      10.00000000  3.96914778E-09       4.00000000
  1088      -7.00000000  3.96914778E-09       4.00000000
  1199       1.00000000  4.18587270E-09       4.00000000
  1200       1.00000000  4.18587270E-09       4.00000000
  1201       1.00000000  4.18587270E-09       4.00000000
  1205       1.00000000  4.18587270E-09       4.00000000
  1206       1.00000000  4.18587270E-09       4.00000000
  1207       1.00000000  4.18587270E-09       4.00000000
  1208       1.00000000  4.18587270E-09       4.00000000
  1209       1.00000000  4.18587270E-09       4.00000000
  1210       7.00000000  4.18587270E-09       4.00000000
  1211       7.00000000  4.18587270E-09       4.00000000
  1212       7.00000000  4.18587270E-09       4.00000000
  1213       7.00000000  4.18587270E-09       4.00000000
  1214       7.00000000  4.18587270E-09       4.00000000
  1215       7.00000000  4.18587270E-09       4.00000000
  1216       7.00000000  4.18587270E-09       4.00000000
  1217       7.00000000  4.18587270E-09       4.00000000
  1218       7.00000000  4.18587270E-09       4.00000000
  1219       7.00000000  4.18587270E-09       4.00000000
  1220       3.00000000  4.18587270E-09       4.00000000
  1221       3.00000000  4.18587270E-09       4.00000000
  1222       3.00000000  4.25859920E-09       4.00000000
  1223       3.00000000  4.18587270E-09       4.00000000
  1224       3.00000000  4.25859920E-09       4.00000000
  1225       3.00000000  4.18587270E-09       4.00000000
  1226       3.00000000  4.18587270E-09       4.00000000
  1227       3.00000000  4.18587270E-09       4.00000000
  1228       3.00000000  4.18587270E-09       4.00000000
  1229       3.00000000  4.18587270E-09       4.00000000
  1230       3.00000000  4.25859920E-09       4.00000000
  1231       3.00000000  4.18587270E-09       4.00000000
  1232       3.00000000  4.25859920E-09       4.00000000
  1233       4.00000000  4.25859920E-09       4.00000000
  1234       4.00000000  4.25859920E-09       4.00000000
  1235       4.00000000  4.25859920E-09       4.00000000
  1236       4.00000000  4.25859920E-09       4.00000000
  1237       4.00000000  4.25859920E-09       4.00000000
  1238       4.00000000  4.25859920E-09       4.00000000
  1239       4.00000000  4.25859920E-09       4.00000000
  1240       0.00000000  4.25859920E-09       4.00000000
  1241       0.00000000  4.25859920E-09       4.00000000
  1242       0.00000000  4.25859920E-09       4.00000000
  1243       0.00000000  4.25859920E-09       4.00000000
  1244       0.00000000  4.25859920E-09       4.00000000
  1245       0.00000000  4.25859920E-09       4.00000000
  1246       0.00000000  4.25859920E-09       4.00000000
  1247       0.00000000  4.25859920E-09       4.00000000
  1248       0.00000000  4.25859920E-09       4.00000000
  1249       0.00000000  4.25859920E-09       4.00000000
  1250       0.00000000  4.25859920E-09       4.00000000
  1251       0.00000000  4.04451200E-09       4.00000000
  1252       0.00000000  4.25859920E-09       4.00000000
  1253       0.00000000  4.25859920E-09       4.00000000
  1254       0.00000000  4.04451200E-09       4.00000000
  1255       0.00000000  4.25859920E-09       4.00000000
  1256       0.00000000  4.04451200E-09       4.00000000
  1257       4.00000000  4.04451200E-09       4.00000000
  1258       4.00000000  4.04451200E-09       4.00000000
  1259       4.00000000  4.04451200E-09       4.00000000
  1260       4.00000000  4.04451200E-09       4.00000000
  1261       4.00000000  4.04451200E-09       4.00000000
  1262       4.00000000  4.04451200E-09       4.00000000
  1263       4.00000000  4.04451200E-09       4.00000000
  1264       4.00000000  4.04451200E-09       4.00000000
  1265       4.00000000  4.04451200E-09       4.00000000
  1266       4.00000000  4.04451200E-09       4.00000000
  1267       4.00000000  4.04451200E-09       4.00000000
  1268       4.00000000  4.04451200E-09       4.00000000
  1269       4.00000000  4.04451200E-09       4.00000000
  1270       4.00000000  4.04451200E-09       4.00000000
  1271       4.00000000  4.04451200E-09       4.00000000
  1272       4.00000000  4.04451200E-09       4.00000000
  1273       5.00000000  4.04451200E-09       4.00000000
  1274       5.00000000  4.04451200E-09       4.00000000
  1275       5.00000000  4.04451200E-09       4.00000000
  1276       5.00000000  4.04451200E-09       4.00000000
  1277       5.00000000  4.04451200E-09       4.00000000
  1278       5.00000000  4.04451200E-09       4.00000000
  1279       5.00000000  4.04451200E-09       4.00000000
  1280       5.00000000  4.04451200E-09       4.00000000
  1281       5.00000000  4.04451200E-09       4.00000000
  1282       5.00000000  4.04451200E-09       4.00000000
  1283       5.00000000  4.04451200E-09       4.00000000
  1284       2.00000000  3.92212827E-09       4.00000000
  1285       2.00000000  3.92212827E-09       4.00000000
  1286       2.00000000  3.92212827E-09       4.00000000
  1287       2.00000000  3.92212827E-09       4.00000000
  1288       2.00000000  3.92212827E-09       4.00000000
  1289       2.00000000  3.92212827E-09       4.00000000
  1290       2.00000000  3.92212827E-09       4.00000000
  1291       5.00000000  3.92212827E-09       4.00000000
  1292       5.00000000  3.92212827E-09       4.00000000
  1293       5.00000000  3.92212827E-09       4.00000000
  1294       5.00000000  3.92212827E-09       4.00000000
  1295       5.00000000  3.92212827E-09       4.00000000
  1296       5.00000000  3.92212827E-09       4.00000000
  1297       5.00000000  3.92212827E-09       4.00000000
  1298       1.00000000  3.92212827E-09       4.00000000
  1299       6.00000000  3.85550740E-09       4.00000000
  1300       6.00000000  3.85550740E-09       4.00000000
  1301       6.00000000  3.85550740E-09       4.00000000
  1302       6.00000000  3.85550740E-09       4.00000000
  1303       3.00000000  3.85550740E-09       4.00000000
  1304       3.00000000  3.85550740E-09       4.00000000
  1305       3.00000000  3.85550740E-09       4.00000000
  1306       3.00000000  3.85550740E-09       4.00000000
  1307       3.00000000  3.85550740E-09       4.00000000
  1308       3.00000000  3.85550740E-09       4.00000000
  1309       3.00000000  3.85550740E-09       4.00000000
  1310       7.00000000  3.85550740E-09       4.00000000
  1311       7.00000000  3.85550740E-09       4.00000000
  1312       7.00000000  3.85550740E-09       4.00000000
  1313       7.00000000  3.85550740E-09       4.00000000
  1314       7.00000000  3.85550740E-09       4.00000000
  1315       7.00000000  3.85550740E-09       4.00000000
  1316       7.00000000  3.85550740E-09       4.00000000
  1317       3.00000000  3.82250655E-09       4.00000000
  1318       3.00000000  3.82250655E-09       4.00000000
  1319       3.00000000  3.82250655E-09       4.00000000
  1320       3.00000000  3.82250655E-09       4.00000000
  1321       3.00000000  3.82250655E-09       4.00000000
  1322       3.00000000  3.82250655E-09       4.00000000
  1323       3.00000000  3.82250655E-09       4.00000000
  1324       7.00000000  3.82250655E-09       4.00000000
  1325       7.00000000  3.82250655E-09       4.00000000
  1326       7.00000000  3.82250655E-09       4.00000000
  1327       7.00000000  3.82250655E-09       4.00000000
  1328       8.00000000  3.82250655E-09       4.00000000
  1329       8.00000000  3.82250655E-09       4.00000000
  1330       8.00000000  3.82250655E-09       4.00000000
  1331       8.00000000  3.82250655E-09       4.00000000
  1332       8.00000000  3.82250655E-09       4.00000000
  1333       8.00000000  3.82250655E-09       4.00000000
  1334       8.00000000  3.82250655E-09       4.00000000
  1335       8.00000000  3.82250655E-09       4.00000000
  1336       8.00000000  3.82250655E-09       4.00000000
  1337       8.00000000  3.82250655E-09       4.00000000
  1338       7.00000000  3.78021358E-09       4.00000000
  1339       7.00000000  3.78021358E-09       4.00000000
  1340       7.00000000  3.78021358E-09       4.00000000
  1341       7.00000000  3.78021358E-09       4.00000000
  1342       7.00000000  3.78021358E-09       4.00000000
  1343       7.00000000  3.78021358E-09       4.00000000
  1344       7.00000000  3.78021358E-09       4.00000000
  1345       7.00000000  3.78021358E-09       4.00000000
  1346       7.00000000  3.78021358E-09       4.00000000
  1347       7.00000000  3.78021358E-09       4.00000000
  1348      10.00000000  3.78021358E-09       4.00000000
  1349      18.00000000  3.78021358E-09       4.00000000
  1350      19.00000000  3.92601394E-09       4.00000000
  1351      15.00000000  3.92601394E-09       4.00000000
  1352      14.00000000  3.92601394E-09       4.00000000
  1353      14.00000000  3.96914778E-09       4.00000000
  1354      17.00000000  3.96914778E-09       4.00000000
  1355      17.00000000  3.96914778E-09       4.00000000
  1356      17.00000000  3.96914778E-09       4.00000000
  1357      17.00000000  3.96914778E-09       4.00000000
  1358      16.00000000  3.96914778E-09       4.00000000
  1359      16.00000000  3.96914778E-09       4.00000000
  1360      16.00000000  3.96914778E-09       4.00000000
  1361      16.00000000  3.96914778E-09       4.00000000
  1364      16.00000000  3.96914778E-09       4.00000000
  1365      16.00000000  3.96914778E-09       4.00000000
  1366      16.00000000  3.96914778E-09       4.00000000
  1367      16.00000000  3.96914778E-09       4.00000000
  1370      17.00000000  3.96914778E-09       4.00000000
  1371      17.00000000  4.14388077E-09       4.00000000