# File generated by Flopy version 3.9.1 on 02/10/2026 at 23:14:17.
BEGIN options
END options

BEGIN timing
  TDIS6  voronoi_caseD.tdis
END timing

BEGIN models
  gwf6  voronoi_caseD.nam  voronoi_cased
END models

BEGIN exchanges
END exchanges

BEGIN solutiongroup  1
  ims6  voronoi_caseD.ims  voronoi_cased
END solutiongroup  1

