# File generated by Flopy version 3.9.1 on 02/10/2026 at 23:14:17.
BEGIN options
  SAVE_FLOWS
END options

BEGIN packages
  disv6  voronoi_caseD.disv  disv
  ic6  voronoi_caseD.ic  ic
  chd6  voronoi_caseD.chd  chd
  npf6  voronoi_caseD.npf  npf
  wel6  voronoi_caseD.wel  well_package
  rch6  voronoi_caseD.rch  rch
  evt6  voronoi_caseD.evt  evt
  oc6  voronoi_caseD.oc  oc
END packages

