# File generated by Flopy version 3.9.1 on 02/10/2026 at 23:14:21.
BEGIN options
  FIXED_CELL
  PRINT_FLOWS
  SAVE_FLOWS
END options

BEGIN dimensions
  MAXBOUND  39992
END dimensions

BEGIN period  1
  1 1 1.28675168E-08
  1 2 1.28712120E-08
  1 3 1.29336929E-08
  1 4 1.31538691E-08
  1 5 1.34988965E-08
  1 6 1.36736340E-08
  1 7 1.38869682E-08
  1 8 1.40613595E-08
  1 9 1.42088805E-08
  1 10 1.42878951E-08
  1 11 1.41461935E-08
  1 12 1.39211018E-08
  1 13 1.34934234E-08
  1 14 1.33477631E-08
  1 15 1.33325503E-08
  1 16 1.33326514E-08
  1 17 1.33305572E-08
  1 18 1.33307776E-08
  1 19 1.33294864E-08
  1 20 1.33301050E-08
  1 21 1.33312951E-08
  1 22 1.33329648E-08
  1 23 1.33346371E-08
  1 24 1.33336918E-08
  1 25 1.33321602E-08
  1 26 1.33315631E-08
  1 27 1.33321324E-08
  1 28 1.33336914E-08
  1 29 1.33322083E-08
  1 30 1.33366881E-08
  1 31 1.34432116E-08
  1 32 1.39640597E-08
  1 33 1.41969432E-08
  1 34 1.43095200E-08
  1 35 1.73658350E-08
  1 36 1.72610176E-08
  1 37 1.76081618E-08
  1 38 1.75837475E-08
  1 39 1.75725650E-08
  1 40 1.75834923E-08
  1 41 1.75767714E-08
  1 42 1.75815350E-08
  1 43 1.77290218E-08
  1 44 1.77432887E-08
  1 45 1.77049210E-08
  1 46 1.77036782E-08
  1 47 1.77435979E-08
  1 48 1.77752146E-08
  1 49 1.77843803E-08
  1 50 1.75748903E-08
  1 51 1.76723646E-08
  1 52 1.77244566E-08
  1 53 1.77532351E-08
  1 54 1.77570679E-08
  1 55 1.77693437E-08
  1 56 1.77453942E-08
  1 57 1.77224106E-08
  1 58 1.77302211E-08
  1 59 1.77154006E-08
  1 60 1.77507404E-08
  1 61 1.75217751E-08
  1 62 1.75315111E-08
  1 63 1.74412895E-08
  1 64 1.73528458E-08
  1 65 1.73364136E-08
  1 66 1.73282672E-08
  1 67 1.73148367E-08
  1 68 1.72754753E-08
  1 69 1.72768996E-08
  1 70 1.72728465E-08
  1 71 1.72645930E-08
  1 72 1.72628600E-08
  1 73 1.72623009E-08
  1 74 1.72499784E-08
  1 75 1.72343640E-08
  1 76 1.71947434E-08
  1 77 1.70475637E-08
  1 78 1.70456086E-08
  1 79 1.70822043E-08
  1 80 1.70841527E-08
  1 81 1.70781765E-08
  1 82 1.70883060E-08
  1 83 1.70874012E-08
  1 84 1.70925106E-08
  1 85 1.70352257E-08
  1 86 1.70372455E-08
  1 87 1.70975482E-08
  1 88 1.71120085E-08
  1 89 1.71113617E-08
  1 90 1.71071600E-08
  1 91 1.71098870E-08
  1 92 1.71167919E-08
  1 93 1.71184215E-08
  1 94 1.71370496E-08
  1 95 1.71366286E-08
  1 96 1.71563771E-08
  1 97 1.71057298E-08
  1 98 1.71282923E-08
  1 99 1.71282314E-08
  1 100 1.71383541E-08
  1 101 1.71406812E-08
  1 102 1.71365123E-08
  1 103 1.71556434E-08
  1 104 1.71562917E-08
  1 105 1.71268807E-08
  1 106 1.71494906E-08
  1 107 1.71435026E-08
  1 108 1.71571220E-08
  1 109 1.71508187E-08
  1 110 1.71411808E-08
  1 111 1.71325286E-08
  1 112 1.71409868E-08
  1 113 1.71309641E-08
  1 114 1.71346869E-08
  1 115 1.71120300E-08
  1 116 1.71151238E-08
  1 117 1.71152581E-08
  1 118 1.71258952E-08
  1 119 1.71305866E-08
  1 120 1.71375774E-08
  1 121 1.71416738E-08
  1 122 1.71622450E-08
  1 123 1.71574979E-08
  1 124 1.71465363E-08
  1 125 1.71383760E-08
  1 126 1.70873477E-08
  1 127 1.70703074E-08
  1 128 1.70921163E-08
  1 129 1.70829270E-08
  1 130 1.72280325E-08
  1 131 1.71367674E-08
  1 132 1.71470370E-08
  1 133 1.71318772E-08
  1 134 1.71602780E-08
  1 135 1.70967423E-08
  1 136 1.70050225E-08
  1 137 1.69841811E-08
  1 138 1.69696198E-08
  1 139 1.69062853E-08
  1 140 1.68653906E-08
  1 141 1.67975215E-08
  1 142 1.67990812E-08
  1 143 1.67153706E-08
  1 144 1.66804931E-08
  1 145 1.68012104E-08
  1 146 1.67400382E-08
  1 147 1.67836029E-08
  1 148 1.67209602E-08
  1 149 1.66709479E-08
  1 150 1.66028464E-08
  1 151 1.65676271E-08
  1 152 1.64929582E-08
  1 153 1.63681879E-08
  1 154 1.62755091E-08
  1 155 1.60562717E-08
  1 156 1.61970981E-08
  1 157 1.61973485E-08
  1 158 1.62846380E-08
  1 159 1.62313146E-08
  1 160 1.61177972E-08
  1 161 1.60703739E-08
  1 162 1.59317957E-08
  1 163 1.59386036E-08
  1 164 1.57386559E-08
  1 165 1.58066550E-08
  1 166 1.58708843E-08
  1 167 1.58949303E-08
  1 168 1.58136567E-08
  1 169 1.57487576E-08
  1 170 1.56232337E-08
  1 171 1.56424893E-08
  1 172 1.55659730E-08
  1 173 1.56379488E-08
  1 174 1.56826048E-08
  1 175 1.54658864E-08
  1 176 1.54479282E-08
  1 177 1.55081544E-08
  1 178 1.55256603E-08
  1 179 1.55634403E-08
  1 180 1.55140974E-08
  1 181 1.55024768E-08
  1 182 1.55892550E-08
  1 183 1.56645320E-08
  1 184 1.60291836E-08
  1 185 1.60135174E-08
  1 186 1.61347949E-08
  1 187 1.63566938E-08
  1 188 1.63627281E-08
  1 189 1.64467070E-08
  1 190 1.64461730E-08
  1 191 1.67640424E-08
  1 192 1.62556389E-08
  1 193 1.62650696E-08
  1 194 1.63385690E-08
  1 195 1.63422148E-08
  1 196 1.63558206E-08
  1 197 1.63749732E-08
  1 198 1.62937268E-08
  1 199 1.61883330E-08
  1 200 1.62027683E-08
  1 201 1.61248669E-08
  1 202 1.61358360E-08
  1 203 1.60910070E-08
  1 204 1.60629615E-08
  1 205 1.81611025E-08
  1 206 1.82564034E-08
  1 207 1.93739446E-08
  1 208 2.00108880E-08
  1 209 2.05957800E-08
  1 210 2.06554844E-08
  1 211 2.07118404E-08
  1 212 2.06028733E-08
  1 213 2.05283431E-08
  1 214 2.04594898E-08
  1 215 2.04198274E-08
  1 216 2.04718667E-08
  1 217 2.01466315E-08
  1 218 1.95469975E-08
  1 219 1.97988249E-08
  1 220 1.93376321E-08
  1 221 1.93815597E-08
  1 222 1.94342059E-08
  1 223 1.94791698E-08
  1 224 1.95734002E-08
  1 225 1.95450439E-08
  1 226 1.93741229E-08
  1 227 1.93864956E-08
  1 228 1.92490864E-08
  1 229 1.87963101E-08
  1 230 1.83901564E-08
  1 231 1.81074118E-08
  1 232 1.78331295E-08
  1 233 1.76354293E-08
  1 234 1.77538287E-08
  1 235 1.64054259E-08
  1 236 1.58768458E-08
  1 237 1.57379935E-08
  1 238 1.53098066E-08
  1 239 1.52503891E-08
  1 240 1.52288948E-08
  1 241 1.50581028E-08
  1 242 1.48330431E-08
  1 243 1.49795589E-08
  1 244 1.49978509E-08
  1 245 1.41640569E-08
  1 246 1.43226373E-08
  1 247 1.42126525E-08
  1 248 1.42101717E-08
  1 249 1.41566036E-08
  1 250 1.41471888E-08
  1 251 1.41391750E-08
  1 252 1.41388783E-08
  1 253 1.41390016E-08
  1 254 1.41291818E-08
  1 255 1.40937323E-08
  1 256 1.40561909E-08
  1 257 1.37160688E-08
  1 258 1.36794624E-08
  1 259 1.33200253E-08
  1 260 1.31963891E-08
  1 261 1.31344081E-08
  1 262 1.30375283E-08
  1 263 1.29366442E-08
  1 264 1.28611365E-08
  1 265 1.28050837E-08
  1 266 1.25749208E-08
  1 267 1.25237473E-08
  1 268 1.23997385E-08
  1 269 1.22369845E-08
  1 270 1.17669191E-08
  1 271 1.16315795E-08
  1 272 1.14063368E-08
  1 273 1.12793400E-08
  1 274 1.06918201E-08
  1 275 1.04664274E-08
  1 276 1.03843780E-08
  1 277 1.01456604E-08
  1 278 9.95196363E-09
  1 279 9.92136788E-09
  1 280 9.91768236E-09
  1 281 9.91864679E-09
  1 282 9.91406060E-09
  1 283 9.91349305E-09
  1 284 9.90870591E-09
  1 285 9.90708920E-09
  1 286 9.90525379E-09
  1 287 9.90118436E-09
  1 288 9.90027656E-09
  1 289 9.89858937E-09
  1 290 9.89251865E-09
  1 291 9.91227116E-09
  1 292 9.91641679E-09
  1 293 9.87119519E-09
  1 294 9.85479155E-09
  1 295 9.85107548E-09
  1 296 9.85226627E-09
  1 297 9.85108168E-09
  1 298 9.85088403E-09
  1 299 9.90602798E-09
  1 300 1.01451124E-08
  1 301 1.04873171E-08
  1 302 1.10811397E-08
  1 303 1.14852038E-08
  1 304 1.17214937E-08
  1 305 1.17915523E-08
  1 306 1.18191566E-08
  1 307 1.18767799E-08
  1 308 1.18767447E-08
  1 309 1.19151459E-08
  1 310 1.20426757E-08
  1 311 1.20427183E-08
  1 312 1.20313570E-08
  1 313 1.20244612E-08
  1 314 1.20186485E-08
  1 315 1.20125462E-08
  1 316 1.19533701E-08
  1 317 1.18717764E-08
  1 318 1.18627348E-08
  1 319 1.18713417E-08
  1 320 1.17853257E-08
  1 321 1.14598896E-08
  1 322 1.14195767E-08
  1 323 1.12294721E-08
  1 324 1.11258243E-08
  1 325 1.06649678E-08
  1 326 1.05086560E-08
  1 327 9.99371795E-09
  1 328 9.97395446E-09
  1 329 9.79435389E-09
  1 330 9.77759332E-09
  1 331 9.75318214E-09
  1 332 9.76219305E-09
  1 333 9.75115264E-09
  1 334 9.69629874E-09
  1 335 9.69168782E-09
  1 336 9.73954567E-09
  1 337 9.68037124E-09
  1 338 9.67532202E-09
  1 339 9.53032633E-09
  1 340 9.27757400E-09
  1 341 9.06395126E-09
  1 342 9.06068850E-09
  1 343 9.10080628E-09
  1 344 9.05985683E-09
  1 345 9.05778631E-09
  1 346 9.37007358E-09
  1 347 9.47669799E-09
  1 348 9.75775277E-09
  1 349 9.83636709E-09
  1 350 9.86351527E-09
  1 351 9.91670096E-09
  1 352 9.95003301E-09
  1 353 9.95843636E-09
  1 354 9.93939153E-09
  1 355 9.94853551E-09
  1 356 9.95626499E-09
  1 357 9.97554043E-09
  1 358 9.99616065E-09
  1 359 9.97359444E-09
  1 360 1.00107332E-08
  1 361 1.00237861E-08
  1 362 1.00499338E-08
  1 363 1.00406229E-08
  1 364 1.00766754E-08
  1 365 1.01282934E-08
  1 366 1.01230404E-08
  1 367 1.01332646E-08
  1 368 1.01326832E-08
  1 369 1.00845467E-08
  1 370 1.00518798E-08
  1 371 1.00394432E-08
  1 372 1.00196162E-08
  1 373 9.05737963E-09
  1 374 9.08094642E-09
  1 375 9.37078414E-09
  1 376 9.37160560E-09
  1 377 9.37528576E-09
  1 378 9.37167097E-09
  1 379 9.37642849E-09
  1 380 9.76899407E-09
  1 381 1.01292554E-08
  1 382 1.03160660E-08
  1 383 1.14424468E-08
  1 384 1.16778426E-08
  1 385 1.21796833E-08
  1 386 1.19913798E-08
  1 387 1.16738483E-08
  1 388 8.43649056E-09
  1 389 8.27383294E-09
  1 390 8.27730267E-09
  1 391 7.88010129E-09
  1 392 7.43996309E-09
  1 393 7.31310939E-09
  1 394 7.32465239E-09
  1 395 7.31528132E-09
  1 396 7.33097863E-09
  1 397 8.94037888E-09
  1 398 9.49977317E-09
  1 399 1.01177967E-08
  1 400 1.08602762E-08
  1 401 1.17155016E-08
  1 402 1.17805979E-08
  1 403 1.17618443E-08
  1 404 1.17847589E-08
  1 405 1.17932216E-08
  1 406 1.19201074E-08
  1 407 1.18172796E-08
  1 408 1.17844979E-08
  1 409 1.18457289E-08
  1 410 1.19636781E-08
  1 411 1.26398365E-08
  1 412 1.28717434E-08
  1 413 1.28779296E-08
  1 414 1.28655943E-08
  1 415 1.29609155E-08
  1 416 1.29446493E-08
  1 417 1.29454930E-08
  1 418 1.27583115E-08
  1 419 1.22248166E-08
  1 420 1.14533707E-08
  1 421 1.14885162E-08
  1 422 1.13959959E-08
  1 423 1.08620075E-08
  1 424 1.05252055E-08
  1 425 9.78077933E-09
  1 426 7.93038985E-09
  1 427 7.62081874E-09
  1 428 7.29600362E-09
  1 429 7.29685069E-09
  1 430 7.29293283E-09
  1 431 7.30962984E-09
  1 432 7.33229580E-09
  1 433 7.38268008E-09
  1 434 7.39668612E-09
  1 435 7.38193764E-09
  1 436 7.40509261E-09
  1 437 7.40107698E-09
  1 438 7.45364079E-09
  1 439 7.64353054E-09
  1 440 7.98520614E-09
  1 441 8.43990941E-09
  1 442 8.77336099E-09
  1 443 8.79146880E-09
  1 444 8.81331404E-09
  1 445 8.85509812E-09
  1 446 8.87367145E-09
  1 447 8.83020763E-09
  1 448 8.85649342E-09
  1 449 9.42951831E-09
  1 450 9.60541726E-09
  1 451 9.78392039E-09
  1 452 9.99674397E-09
  1 453 1.01750212E-08
  1 454 1.03385088E-08
  1 455 1.06723924E-08
  1 456 1.06702999E-08
  1 457 1.06410131E-08
  1 458 1.06021037E-08
  1 459 1.05648855E-08
  1 460 1.05846096E-08
  1 461 1.05696392E-08
  1 462 1.05840381E-08
  1 463 1.04947312E-08
  1 464 1.05137478E-08
  1 465 1.03937600E-08
  1 466 1.06484109E-08
  1 467 1.14099749E-08
  1 468 1.19131008E-08
  1 469 1.23121339E-08
  1 470 1.28382012E-08
  1 471 1.28614291E-08
  1 472 1.29200055E-08
  1 473 1.29616572E-08
  1 474 1.29569996E-08
  1 475 1.29410867E-08
  1 476 1.29386140E-08
  1 477 1.29888789E-08
  1 478 1.31701572E-08
  1 479 1.32273788E-08
  1 480 1.32319058E-08
  1 481 1.32631359E-08
  1 482 1.33014909E-08
  1 483 1.33072143E-08
  1 484 1.33053888E-08
  1 485 1.33243864E-08
  1 486 1.33323181E-08
  1 487 1.33717129E-08
  1 488 1.37980685E-08
  1 489 1.38188086E-08
  1 490 1.38226167E-08
  1 491 1.38243915E-08
  1 492 1.38322784E-08
  1 493 1.38397190E-08
  1 494 1.38421597E-08
  1 495 1.38483471E-08
  1 496 1.38541884E-08
  1 497 1.38615294E-08
  1 498 1.38622646E-08
  1 499 1.38651639E-08
  1 500 1.38745858E-08
  1 501 1.38779666E-08
  1 502 1.38854300E-08
  1 503 1.39114836E-08
  1 504 1.39210614E-08
  1 505 1.39313263E-08
  1 506 1.39429256E-08
  1 507 1.39484787E-08
  1 508 1.39582041E-08
  1 509 1.39670664E-08
  1 510 1.39729361E-08
  1 511 1.39716732E-08
  1 512 1.39694872E-08
  1 513 1.39660148E-08
  1 514 1.39607339E-08
  1 515 1.39559942E-08
  1 516 1.39356063E-08
  1 517 1.38850971E-08
  1 518 1.38473143E-08
  1 519 1.38340198E-08
  1 520 1.38060772E-08
  1 521 1.37950876E-08
  1 522 1.37668937E-08
  1 523 1.37749556E-08
  1 524 1.37710498E-08
  1 525 1.37669891E-08
  1 526 1.37578869E-08
  1 527 1.37446455E-08
  1 528 1.37305419E-08
  1 529 1.37304193E-08
  1 530 1.37417345E-08
  1 531 1.36865758E-08
  1 532 1.36939576E-08
  1 533 1.36876441E-08
  1 534 1.36927407E-08
  1 535 1.36830709E-08
  1 536 1.36751916E-08
  1 537 1.36658761E-08
  1 538 1.36498386E-08
  1 539 1.36371753E-08
  1 540 1.36155263E-08
  1 541 1.35827851E-08
  1 542 1.35934195E-08
  1 543 1.35843305E-08
  1 544 1.35808471E-08
  1 545 1.35599559E-08
  1 546 1.35383138E-08
  1 547 1.35408957E-08
  1 548 1.35204971E-08
  1 549 1.35048657E-08
  1 550 1.34991121E-08
  1 551 1.34918307E-08
  1 552 1.34816651E-08
  1 553 1.34714811E-08
  1 554 1.34317400E-08
  1 555 1.34087304E-08
  1 556 1.33935688E-08
  1 557 1.33935984E-08
  1 558 1.33814978E-08
  1 559 1.33776025E-08
  1 560 1.33695970E-08
  1 561 1.33508406E-08
  1 562 1.33098839E-08
  1 563 1.33101197E-08
  1 564 1.32915861E-08
  1 565 1.32851225E-08
  1 566 1.32594696E-08
  1 567 1.32292130E-08
  1 568 1.31800538E-08
  1 569 1.31836825E-08
  1 570 1.31559865E-08
  1 571 1.30980673E-08
  1 572 1.30696221E-08
  1 573 1.30814941E-08
  1 574 1.30629172E-08
  1 575 1.30753303E-08
  1 576 1.30487888E-08
  1 577 1.30327001E-08
  1 578 1.30331386E-08
  1 579 1.30224495E-08
  1 580 1.30001203E-08
  1 581 1.29674723E-08
  1 582 1.29378163E-08
  1 583 1.29238767E-08
  1 584 1.29083493E-08
  1 585 1.29146115E-08
  1 586 1.28616961E-08
  1 587 1.28551035E-08
  1 588 1.28258272E-08
  1 589 1.27716709E-08
  1 590 1.27684329E-08
  1 591 1.27487147E-08
  1 592 1.27205191E-08
  1 593 1.26890677E-08
  1 594 1.26684877E-08
  1 595 1.25851359E-08
  1 596 1.25887317E-08
  1 597 1.25562512E-08
  1 598 1.25042692E-08
  1 599 1.24857889E-08
  1 600 1.23924155E-08
  1 601 1.23681548E-08
  1 602 1.23137845E-08
  1 603 1.22905540E-08
  1 604 1.22584057E-08
  1 605 1.22298483E-08
  1 606 1.21987348E-08
  1 607 1.21541774E-08
  1 608 1.21373098E-08
  1 609 1.20630343E-08
  1 610 1.20772618E-08
  1 611 1.20134644E-08
  1 612 1.19967292E-08
  1 613 1.19461865E-08
  1 614 1.18350619E-08
  1 615 1.18736464E-08
  1 616 1.18891744E-08
  1 617 1.16256179E-08
  1 618 1.15956649E-08
  1 619 1.15735617E-08
  1 620 1.15785622E-08
  1 621 1.15402580E-08
  1 622 1.14202144E-08
  1 623 1.08525415E-08
  1 624 1.05572633E-08
  1 625 1.02340897E-08
  1 626 1.01840956E-08
  1 627 1.01795423E-08
  1 628 1.01998492E-08
  1 629 1.01745267E-08
  1 630 1.01699612E-08
  1 631 1.01894730E-08
  1 632 1.02596290E-08
  1 633 1.01819444E-08
  1 634 1.01603130E-08
  1 635 1.01941127E-08
  1 636 1.02628740E-08
  1 637 1.03927925E-08
  1 638 1.05682505E-08
  1 639 1.11547218E-08
  1 640 1.22297110E-08
  1 641 1.28702380E-08
  1 642 1.28427743E-08
  1 643 1.43611871E-08
  1 644 1.43576160E-08
  1 645 1.43532612E-08
  1 646 1.43489214E-08
  1 647 1.43430510E-08
  1 648 1.43336793E-08
  1 649 1.43238892E-08
  1 650 1.43218925E-08
  1 651 1.43211367E-08
  1 652 1.43164486E-08
  1 653 1.43164941E-08
  1 654 1.43125357E-08
  1 655 1.43067923E-08
  1 656 1.42947115E-08
  1 657 1.42916638E-08
  1 658 1.42891468E-08
  1 659 1.42855577E-08
  1 660 1.42770670E-08
  1 661 1.42745030E-08
  1 662 1.42627964E-08
  1 663 1.42584559E-08
  1 664 1.42531605E-08
  1 665 1.42469738E-08
  1 666 1.42462668E-08
  1 667 1.42366571E-08
  1 668 1.42292567E-08
  1 669 1.42271118E-08
  1 670 1.42212666E-08
  1 671 1.42174353E-08
  1 672 1.42122748E-08
  1 673 1.42088772E-08
  1 674 1.42086231E-08
  1 675 1.41992664E-08
  1 676 1.41823992E-08
  1 677 1.41821027E-08
  1 678 1.41793909E-08
  1 679 1.41792141E-08
  1 680 1.41782041E-08
  1 681 1.41726174E-08
  1 682 1.41611353E-08
  1 683 1.41582491E-08
  1 684 1.41555964E-08
  1 685 1.41537618E-08
  1 686 1.41434805E-08
  1 687 1.41419917E-08
  1 688 1.41418390E-08
  1 689 1.41344245E-08
  1 690 1.41323378E-08
  1 691 1.41305666E-08
  1 692 1.41273242E-08
  1 693 1.41212906E-08
  1 694 1.41141148E-08
  1 695 1.41074952E-08
  1 696 1.41073702E-08
  1 697 1.41065211E-08
  1 698 1.40973413E-08
  1 699 1.40930896E-08
  1 700 1.40900067E-08
  1 701 1.40857673E-08
  1 702 1.40854000E-08
  1 703 1.40770771E-08
  1 704 1.40743037E-08
  1 705 1.40741793E-08
  1 706 1.40660718E-08
  1 707 1.40616179E-08
  1 708 1.40584576E-08
  1 709 1.40522844E-08
  1 710 1.40522303E-08
  1 711 1.40506426E-08
  1 712 1.40485448E-08
  1 713 1.40485049E-08
  1 714 1.40459749E-08
  1 715 1.40411997E-08
  1 716 1.40378616E-08
  1 717 1.40359794E-08
  1 718 1.40346730E-08
  1 719 1.40334276E-08
  1 720 1.40256230E-08
  1 721 1.40231198E-08
  1 722 1.40229971E-08
  1 723 1.40197071E-08
  1 724 1.40134665E-08
  1 725 1.40114744E-08
  1 726 1.40114370E-08
  1 727 1.39985856E-08
  1 728 1.39956775E-08
  1 729 1.39902421E-08
  1 730 1.39900886E-08
  1 731 1.39892049E-08
  1 732 1.39901042E-08
  1 733 1.39911684E-08
  1 734 1.39910701E-08
  1 735 1.39897940E-08
  1 736 1.39873334E-08
  1 737 1.39836906E-08
  1 738 1.39788781E-08
  1 739 1.39729187E-08
  1 740 1.39658467E-08
  1 741 1.39577084E-08
  1 742 1.39485625E-08
  1 743 1.39425277E-08
  1 744 1.39376411E-08
  1 745 1.39265843E-08
  1 746 1.39182448E-08
  1 747 1.39134799E-08
  1 748 1.39050282E-08
  1 749 1.38957137E-08
  1 750 1.38856065E-08
  1 751 1.38747875E-08
  1 752 1.38689290E-08
  1 753 1.38662189E-08
  1 754 1.38623623E-08
  1 755 1.38573931E-08
  1 756 1.38513370E-08
  1 757 1.38442305E-08
  1 758 1.38361212E-08
  1 759 1.38270684E-08
  1 760 1.38202768E-08
  1 761 1.38144543E-08
  1 762 1.38140480E-08
  1 763 1.38130744E-08
  1 764 1.38126149E-08
  1 765 1.38054227E-08
  1 766 1.37977683E-08
  1 767 1.37965476E-08
  1 768 1.37942315E-08
  1 769 1.37929483E-08
  1 770 1.37921477E-08
  1 771 1.37913023E-08
  1 772 1.37821341E-08
  1 773 1.37725166E-08
  1 774 1.37699227E-08
  1 775 1.37653251E-08
  1 776 1.37646614E-08
  1 777 1.37625362E-08
  1 778 1.37583804E-08
  1 779 1.37530138E-08
  1 780 1.37522445E-08
  1 781 1.37457343E-08
  1 782 1.37419212E-08
  1 783 1.37365230E-08
  1 784 1.37363258E-08
  1 785 1.37293917E-08
  1 786 1.37214956E-08
  1 787 1.37127000E-08
  1 788 1.37030791E-08
  1 789 1.36927187E-08
  1 790 1.36817156E-08
  1 791 1.36701775E-08
  1 792 1.36582214E-08
  1 793 1.36459731E-08
  1 794 1.36335653E-08
  1 795 1.36211363E-08
  1 796 1.36088274E-08
  1 797 1.36052498E-08
  1 798 1.36030594E-08
  1 799 1.36000218E-08
  1 800 1.35899811E-08
  1 801 1.35892363E-08
  1 802 1.35812892E-08
  1 803 1.35799638E-08
  1 804 1.35724110E-08
  1 805 1.35643366E-08
  1 806 1.35583218E-08
  1 807 1.35560850E-08
  1 808 1.35559775E-08
  1 809 1.35549762E-08
  1 810 1.35524113E-08
  1 811 1.35489174E-08
  1 812 1.35485498E-08
  1 813 1.35446333E-08
  1 814 1.35400035E-08
  1 815 1.35346947E-08
  1 816 1.35338735E-08
  1 817 1.35325813E-08
  1 818 1.35325191E-08
  1 819 1.35281155E-08
  1 820 1.35230272E-08
  1 821 1.35172959E-08
  1 822 1.35120308E-08
  1 823 1.35112566E-08
  1 824 1.35066510E-08
  1 825 1.35061678E-08
  1 826 1.35005675E-08
  1 827 1.34941449E-08
  1 828 1.34876447E-08
  1 829 1.34847888E-08
  1 830 1.34840890E-08
  1 831 1.34824602E-08
  1 832 1.34814953E-08
  1 833 1.34743378E-08
  1 834 1.34723016E-08
  1 835 1.34687689E-08
  1 836 1.34622388E-08
  1 837 1.34617998E-08
  1 838 1.34605372E-08
  1 839 1.34586962E-08
  1 840 1.34562906E-08
  1 841 1.34533401E-08
  1 842 1.34498705E-08
  1 843 1.34459138E-08
  1 844 1.34415072E-08
  1 845 1.34366936E-08
  1 846 1.34356365E-08
  1 847 1.34338253E-08
  1 848 1.34338064E-08
  1 849 1.34332571E-08
  1 850 1.34327996E-08
  1 851 1.34309380E-08
  1 852 1.34283476E-08
  1 853 1.34277911E-08
  1 854 1.34274443E-08
  1 855 1.34247967E-08
  1 856 1.34216983E-08
  1 857 1.34213988E-08
  1 858 1.34203084E-08
  1 859 1.34172106E-08
  1 860 1.34144557E-08
  1 861 1.34158252E-08
  1 862 1.34181904E-08
  1 863 1.34186210E-08
  1 864 1.34210971E-08
  1 865 1.34230533E-08
  1 866 1.34232426E-08
  1 867 1.34244058E-08
  1 868 1.34252411E-08
  1 869 1.34253562E-08
  1 870 1.34253856E-08
  1 871 1.34316531E-08
  1 872 1.34381417E-08
  1 873 1.34444269E-08
  1 874 1.34451676E-08
  1 875 1.34505050E-08
  1 876 1.34552840E-08
  1 877 1.34593784E-08
  1 878 1.34675970E-08
  1 879 1.34755322E-08
  1 880 1.34830958E-08
  1 881 1.34851536E-08
  1 882 1.34866265E-08
  1 883 1.34951950E-08
  1 884 1.34982273E-08
  1 885 1.34993116E-08
  1 886 1.35024757E-08
  1 887 1.35041398E-08
  1 888 1.35149159E-08
  1 889 1.35255741E-08
  1 890 1.35359963E-08
  1 891 1.35368155E-08
  1 892 1.35477546E-08
  1 893 1.35581396E-08
  1 894 1.35678393E-08
  1 895 1.35705268E-08
  1 896 1.35762524E-08
  1 897 1.35765533E-08
  1 898 1.35771184E-08
  1 899 1.35775035E-08
  1 900 1.35799841E-08
  1 901 1.35901603E-08
  1 902 1.35997252E-08
  1 903 1.36044165E-08
  1 904 1.36045218E-08
  1 905 1.36047625E-08
  1 906 1.36085811E-08
  1 907 1.36091999E-08
  1 908 1.36103191E-08
  1 909 1.36129468E-08
  1 910 1.36199540E-08
  1 911 1.36245534E-08
  1 912 1.36346259E-08
  1 913 1.36439852E-08
  1 914 1.36525431E-08
  1 915 1.36530250E-08
  1 916 1.36541102E-08
  1 917 1.36578266E-08
  1 918 1.36685664E-08
  1 919 1.36759219E-08
  1 920 1.36810287E-08
  1 921 1.36911930E-08
  1 922 1.36937462E-08
  1 923 1.36982077E-08
  1 924 1.36997134E-08
  1 925 1.37117729E-08
  1 926 1.37249100E-08
  1 927 1.37376136E-08
  1 928 1.37497613E-08
  1 929 1.37612394E-08
  1 930 1.37719446E-08
  1 931 1.37817844E-08
  1 932 1.37827185E-08
  1 933 1.37832821E-08
  1 934 1.37860583E-08
  1 935 1.37994233E-08
  1 936 1.38121778E-08
  1 937 1.38228930E-08
  1 938 1.38264313E-08
  1 939 1.38424491E-08
  1 940 1.38577342E-08
  1 941 1.38588017E-08
  1 942 1.38713491E-08
  1 943 1.38830810E-08
  1 944 1.38938958E-08
  1 945 1.38948608E-08
  1 946 1.39060648E-08
  1 947 1.39175519E-08
  1 948 1.39220028E-08
  1 949 1.39237779E-08
  1 950 1.39289302E-08
  1 951 1.39299787E-08
  1 952 1.39320766E-08
  1 953 1.39326982E-08
  1 954 1.39356188E-08
  1 955 1.39361844E-08
  1 956 1.39496932E-08
  1 957 1.39519970E-08
  1 958 1.39522225E-08
  1 959 1.39544995E-08
  1 960 1.39617368E-08
  1 961 1.39617454E-08
  1 962 1.39652393E-08
  1 963 1.39709792E-08
  1 964 1.39729039E-08
  1 965 1.39731473E-08
  1 966 1.39739055E-08
  1 967 1.39758672E-08
  1 968 1.39758041E-08
  1 969 1.39862276E-08
  1 970 1.39873879E-08
  1 971 1.39910445E-08
  1 972 1.39919934E-08
  1 973 1.39944006E-08
  1 974 1.39973580E-08
  1 975 1.39975630E-08
  1 976 1.39993431E-08
  1 977 1.40118794E-08
  1 978 1.40232996E-08
  1 979 1.40252050E-08
  1 980 1.40267688E-08
  1 981 1.40275372E-08
  1 982 1.40296904E-08
  1 983 1.40310216E-08
  1 984 1.40354910E-08
  1 985 1.40355479E-08
  1 986 1.40372518E-08
  1 987 1.40397541E-08
  1 988 1.40403478E-08
  1 989 1.40483869E-08
  1 990 1.40553638E-08
  1 991 1.40562569E-08
  1 992 1.40582294E-08
  1 993 1.40643158E-08
  1 994 1.40648673E-08
  1 995 1.40651625E-08
  1 996 1.40661428E-08
  1 997 1.40691086E-08
  1 998 1.40703513E-08
  1 999 1.40715038E-08
  1 1000 1.40724053E-08
  1 1001 1.40747773E-08
  1 1002 1.40763256E-08
  1 1003 1.40777619E-08
  1 1004 1.40790639E-08
  1 1005 1.40799026E-08
  1 1006 1.40810945E-08
  1 1007 1.40816467E-08
  1 1008 1.40860952E-08
  1 1009 1.40867212E-08
  1 1010 1.40875220E-08
  1 1011 1.40924581E-08
  1 1012 1.40937017E-08
  1 1013 1.41037256E-08
  1 1014 1.41047699E-08
  1 1015 1.41067969E-08
  1 1016 1.41077034E-08
  1 1017 1.41172910E-08
  1 1018 1.41210083E-08
  1 1019 1.41214275E-08
  1 1020 1.41263845E-08
  1 1021 1.41264611E-08
  1 1022 1.41280967E-08
  1 1023 1.41299804E-08
  1 1024 1.41310913E-08
  1 1025 1.41314709E-08
  1 1026 1.41314220E-08
  1 1027 1.41384618E-08
  1 1028 1.41398024E-08
  1 1029 1.41422351E-08
  1 1030 1.41434311E-08
  1 1031 1.41436496E-08
  1 1032 1.41442544E-08
  1 1033 1.41453359E-08
  1 1034 1.41474196E-08
  1 1035 1.41492480E-08
  1 1036 1.41547010E-08
  1 1037 1.41566110E-08
  1 1038 1.41587623E-08
  1 1039 1.41603491E-08
  1 1040 1.41640949E-08
  1 1041 1.41648073E-08
  1 1042 1.41647779E-08
  1 1043 1.41694115E-08
  1 1044 1.41706627E-08
  1 1045 1.41719249E-08
  1 1046 1.41746388E-08
  1 1047 1.41751933E-08
  1 1048 1.41767510E-08
  1 1049 1.41834106E-08
  1 1050 1.41907917E-08
  1 1051 1.41918281E-08
  1 1052 1.42000965E-08
  1 1053 1.42050176E-08
  1 1054 1.42102472E-08
  1 1055 1.42175169E-08
  1 1056 1.42178966E-08
  1 1057 1.42207833E-08
  1 1058 1.42226730E-08
  1 1059 1.42229722E-08
  1 1060 1.42264237E-08
  1 1061 1.42268970E-08
  1 1062 1.42285993E-08
  1 1063 1.42345023E-08
  1 1064 1.42432210E-08
  1 1065 1.42436742E-08
  1 1066 1.42512845E-08
  1 1067 1.42517108E-08
  1 1068 1.42586364E-08
  1 1069 1.42588621E-08
  1 1070 1.42608718E-08
  1 1071 1.42629586E-08
  1 1072 1.42649803E-08
  1 1073 1.42678714E-08
  1 1074 1.42728793E-08
  1 1075 1.42803009E-08
  1 1076 1.42865812E-08
  1 1077 1.42916878E-08
  1 1078 1.42921171E-08
  1 1079 1.42944071E-08
  1 1080 1.42986538E-08
  1 1081 1.42987041E-08
  1 1082 1.42992374E-08
  1 1083 1.42994648E-08
  1 1084 1.42996965E-08
  1 1085 1.42997445E-08
  1 1086 1.43002787E-08
  1 1087 1.43011765E-08
  1 1088 1.43020079E-08
  1 1089 1.43022660E-08
  1 1090 1.43022043E-08
  1 1091 1.43026392E-08
  1 1092 1.43034438E-08
  1 1093 1.43035916E-08
  1 1094 1.43037815E-08
  1 1095 1.43083918E-08
  1 1096 1.43091942E-08
  1 1097 1.43092997E-08
  1 1098 1.43118585E-08
  1 1099 1.43127876E-08
  1 1100 1.43128454E-08
  1 1101 1.43135525E-08
  1 1102 1.43155349E-08
  1 1103 1.43167262E-08
  1 1104 1.43169314E-08
  1 1105 1.43169793E-08
  1 1106 1.43170171E-08
  1 1107 1.43170951E-08
  1 1108 1.43182043E-08
  1 1109 1.43187564E-08
  1 1110 1.43188482E-08
  1 1111 1.43189894E-08
  1 1112 1.43190313E-08
  1 1113 1.43191832E-08
  1 1114 1.43193450E-08
  1 1115 1.43193626E-08
  1 1116 1.43194146E-08
  1 1117 1.43198613E-08
  1 1118 1.43199398E-08
  1 1119 1.43199103E-08
  1 1120 1.43199888E-08
  1 1121 1.43200442E-08
  1 1122 1.43202365E-08
  1 1123 1.43212303E-08
  1 1124 1.43213390E-08
  1 1125 1.43215574E-08
  1 1126 1.43215958E-08
  1 1127 1.43216042E-08
  1 1128 1.43217246E-08
  1 1129 1.43217899E-08
  1 1130 1.43217193E-08
  1 1131 1.43220376E-08
  1 1132 1.43220216E-08
  1 1133 1.43220013E-08
  1 1134 1.43231812E-08
  1 1135 1.43235565E-08
  1 1136 1.43242481E-08
  1 1137 1.43244172E-08
  1 1138 1.43247399E-08
  1 1139 1.43248450E-08
  1 1140 1.43256092E-08
  1 1141 1.43267445E-08
  1 1142 1.43271708E-08
  1 1143 1.43271635E-08
  1 1144 1.43271419E-08
  1 1145 1.43271182E-08
  1 1146 1.43270196E-08
  1 1147 1.43270221E-08
  1 1148 1.43272970E-08
  1 1149 1.43272627E-08
  1 1150 1.43266313E-08
  1 1151 1.43266707E-08
  1 1152 1.43265750E-08
  1 1153 1.43265631E-08
  1 1154 1.43264375E-08
  1 1155 1.43262698E-08
  1 1156 1.43261708E-08
  1 1157 1.43255004E-08
  1 1158 1.43252167E-08
  1 1159 1.43268632E-08
  1 1160 1.43272898E-08
  1 1161 1.43315858E-08
  1 1162 1.43319761E-08
  1 1163 1.43322993E-08
  1 1164 1.43325543E-08
  1 1165 1.43341955E-08
  1 1166 1.43343313E-08
  1 1167 1.43348379E-08
  1 1168 1.43350389E-08
  1 1169 1.43357160E-08
  1 1170 1.43358386E-08
  1 1171 1.43360023E-08
  1 1172 1.43360383E-08
  1 1173 1.43359034E-08
  1 1174 1.43357855E-08
  1 1175 1.43349995E-08
  1 1176 1.43343045E-08
  1 1177 1.43335525E-08
  1 1178 1.43377511E-08
  1 1179 1.43409942E-08
  1 1180 1.43458996E-08
  1 1181 1.43503786E-08
  1 1182 1.43543118E-08
  1 1183 1.43553314E-08
  1 1184 1.43561709E-08
  1 1185 1.43562661E-08
  1 1186 1.43596423E-08
  1 1187 1.43604544E-08
  1 1188 1.43613266E-08
  1 1189 1.43615707E-08
  1 1190 1.43615246E-08
  1 1191 1.43631551E-08
  1 1192 1.43632050E-08
  1 1193 1.43652239E-08
  1 1194 1.43652640E-08
  1 1195 1.43693341E-08
  1 1196 1.43695381E-08
  1 1197 1.43708406E-08
  1 1198 1.43713039E-08
  1 1199 1.43738974E-08
  1 1200 1.43759223E-08
  1 1201 1.43773506E-08
  1 1202 1.43781644E-08
  1 1203 1.43782039E-08
  1 1204 1.43782511E-08
  1 1205 1.43782751E-08
  1 1206 1.43783683E-08
  1 1207 1.43786418E-08
  1 1208 1.43784001E-08
  1 1209 1.43775113E-08
  1 1210 1.43766216E-08
  1 1211 1.43754287E-08
  1 1212 1.43754146E-08
  1 1213 1.43752164E-08
  1 1214 1.43749145E-08
  1 1215 1.43743987E-08
  1 1216 1.43737466E-08
  1 1217 1.43738220E-08
  1 1218 1.43741370E-08
  1 1219 1.43741256E-08
  1 1220 1.43741233E-08
  1 1221 1.43741127E-08
  1 1222 1.43735902E-08
  1 1223 1.43734698E-08
  1 1224 1.43721723E-08
  1 1225 1.43719636E-08
  1 1226 1.43709839E-08
  1 1227 1.43708792E-08
  1 1228 1.43708463E-08
  1 1229 1.43698124E-08
  1 1230 1.43667998E-08
  1 1231 1.43663823E-08
  1 1232 1.43657574E-08
  1 1233 1.43654891E-08
  1 1234 1.43622237E-08
  1 1235 1.43584625E-08
  1 1236 1.43583050E-08
  1 1237 1.43573363E-08
  1 1238 1.43571553E-08
  1 1239 1.43563327E-08
  1 1240 1.43561022E-08
  1 1241 1.43537246E-08
  1 1242 1.43511256E-08
  1 1243 1.43508215E-08
  1 1244 1.43483309E-08
  1 1245 1.43479584E-08
  1 1246 1.43467145E-08
  1 1247 1.43470518E-08
  1 1248 1.43475222E-08
  1 1249 1.43475304E-08
  1 1250 1.43472596E-08
  1 1251 1.43461198E-08
  1 1252 1.43440799E-08
  1 1253 1.43437786E-08
  1 1254 1.43432641E-08
  1 1255 1.43429376E-08
  1 1256 1.43427215E-08
  1 1257 1.43422880E-08
  1 1258 1.43419945E-08
  1 1259 1.43403962E-08
  1 1260 1.43382451E-08
  1 1261 1.43381108E-08
  1 1262 1.43367756E-08
  1 1263 1.43365015E-08
  1 1264 1.43332577E-08
  1 1265 1.43292891E-08
  1 1266 1.43286764E-08
  1 1267 1.43211251E-08
  1 1268 1.43204199E-08
  1 1269 1.43194139E-08
  1 1270 1.43190473E-08
  1 1271 1.43181928E-08
  1 1272 1.43185403E-08
  1 1273 1.43187317E-08
  1 1274 1.43187801E-08
  1 1275 1.43192913E-08
  1 1276 1.43201631E-08
  1 1277 1.43204301E-08
  1 1278 1.43206639E-08
  1 1279 1.43207048E-08
  1 1280 1.43209037E-08
  1 1281 1.43211476E-08
  1 1282 1.43221047E-08
  1 1283 1.43222454E-08
  1 1284 1.43225091E-08
  1 1285 1.43243644E-08
  1 1286 1.43245957E-08
  1 1287 1.43282569E-08