# File generated by Flopy version 3.9.1 on 01/21/2026 at 05:33:41.
BEGIN options
  BUDGET  FILEOUT  quadtree_caseC.cbc
  HEAD  FILEOUT  quadtree_caseC.hds
END options

BEGIN period  1
  SAVE  head  last
  SAVE  budget  last
  PRINT  budget  last
END period  1

