# File generated by Flopy version 3.9.1 on 01/21/2026 at 05:33:40.
BEGIN options
  FIXED_CELL
  PRINT_FLOWS
  SAVE_FLOWS
END options

BEGIN dimensions
  MAXBOUND  14517
END dimensions

BEGIN period  1
  1 1.14168755E-08
  2 1.13708648E-08
  3 1.13998201E-08
  4 1.14417933E-08
  5 1.13162790E-08
  6 1.13145451E-08
  7 1.12654407E-08
  8 1.12256684E-08
  9 1.11734619E-08
  10 1.13604281E-08
  11 1.13858959E-08
  12 1.14462617E-08
  13 1.15392782E-08
  14 1.12543470E-08
  15 1.12816309E-08
  16 1.11617092E-08
  17 1.11908164E-08
  18 1.13461577E-08
  19 1.14454064E-08
  20 1.12595123E-08
  21 1.13649832E-08
  22 1.16616586E-08
  23 1.18093495E-08
  24 1.15757049E-08
  25 1.17325494E-08
  26 1.15031484E-08
  27 1.16690298E-08
  28 1.19109567E-08
  29 1.21058049E-08
  30 1.18571569E-08
  31 1.20619522E-08
  32 1.23939411E-08
  33 1.23562155E-08
  34 1.25926359E-08
  35 1.28314034E-08
  36 1.30686741E-08
  37 1.33013307E-08
  38 1.35269418E-08
  39 1.37436914E-08
  40 1.39502922E-08
  41 1.41458954E-08
  42 1.43300048E-08
  43 1.45023986E-08
  44 1.46367009E-08
  45 1.47854921E-08
  46 1.49229882E-08
  47 1.50494952E-08
  48 1.51653624E-08
  49 1.24186505E-08
  50 1.27072718E-08
  51 1.24559022E-08
  52 1.19297938E-08
  53 1.17358167E-08
  54 1.15459015E-08
  55 1.17115019E-08
  56 1.15129860E-08
  57 1.21729651E-08
  58 1.19339426E-08
  59 1.22049065E-08
  60 1.19598830E-08
  61 1.17078696E-08
  62 1.15016440E-08
  63 1.17273723E-08
  64 1.15146245E-08
  65 1.13817311E-08
  66 1.12491768E-08
  67 1.13409166E-08
  68 1.12016750E-08
  69 1.11533355E-08
  70 1.10980768E-08
  71 1.11008341E-08
  72 1.10426444E-08
  73 1.13224036E-08
  74 1.11770291E-08
  75 1.13292097E-08
  76 1.11784815E-08
  77 1.10715672E-08
  78 1.10106511E-08
  79 1.10689425E-08
  80 1.10055992E-08
  81 1.10856726E-08
  82 1.11165708E-08
  83 1.10296080E-08
  84 1.10622174E-08
  85 1.11893570E-08
  86 1.13009105E-08
  87 1.11389108E-08
  88 1.12562519E-08
  89 1.09970164E-08
  90 1.10312021E-08
  91 1.09914174E-08
  92 1.10269835E-08
  93 1.11114989E-08
  94 1.12341540E-08
  95 1.11104451E-08
  96 1.12377419E-08
  97 1.14467238E-08
  98 1.16213285E-08
  99 1.14092972E-08
  100 1.15920818E-08
  101 1.18187565E-08
  102 1.20946769E-08
  103 1.17981409E-08
  104 1.20806797E-08
  105 1.13937893E-08
  106 1.15839509E-08
  107 1.14030769E-08
  108 1.15995299E-08
  109 1.18431400E-08
  110 1.20868587E-08
  111 1.18652742E-08
  112 1.21152365E-08
  113 1.23336386E-08
  114 1.25789222E-08
  115 1.23281278E-08
  116 1.25812310E-08
  117 1.28257556E-08
  118 1.30701712E-08
  119 1.28350342E-08
  120 1.30854743E-08
  121 1.23415366E-08
  122 1.26011377E-08
  123 1.23755835E-08
  124 1.26400768E-08
  125 1.28605585E-08
  126 1.31156728E-08
  127 1.29035060E-08
  128 1.31617176E-08
  129 1.33090010E-08
  130 1.35398196E-08
  131 1.33293588E-08
  132 1.35642901E-08
  133 1.37608566E-08
  134 1.39708955E-08
  135 1.37885609E-08
  136 1.40010391E-08
  137 1.33632911E-08
  138 1.36010660E-08
  139 1.34115537E-08
  140 1.36507380E-08
  141 1.38273698E-08
  142 1.40411651E-08
  143 1.38777365E-08
  144 1.40916143E-08
  145 1.41691724E-08
  146 1.43552806E-08
  147 1.42010540E-08
  148 1.43882935E-08
  149 1.45290866E-08
  150 1.46647833E-08
  151 1.45376520E-08
  152 1.46990416E-08
  153 1.42418807E-08
  154 1.44293011E-08
  155 1.42919025E-08
  156 1.44784812E-08
  157 1.45788295E-08
  158 1.47396138E-08
  159 1.46272205E-08
  160 1.47865773E-08
  161 1.48140417E-08
  162 1.49516419E-08
  163 1.48481099E-08
  164 1.49852203E-08
  165 1.50779466E-08
  166 1.51933532E-08
  167 1.51107890E-08
  168 1.52252569E-08
  169 1.48877923E-08
  170 1.50237867E-08
  171 1.49331328E-08
  172 1.50673594E-08
  173 1.51480606E-08
  174 1.52610930E-08
  175 1.51897612E-08
  176 1.53008481E-08
  177 1.52982727E-08
  178 1.53931154E-08
  179 1.53290702E-08
  180 1.54226661E-08
  181 1.55064640E-08
  182 1.55808599E-08
  183 1.53633593E-08
  184 1.54553186E-08
  185 1.54011182E-08
  186 1.54910459E-08
  187 1.55374055E-08
  188 1.56100256E-08
  189 1.55710754E-08
  190 1.56416164E-08
  191 1.56735539E-08
  192 1.57283357E-08
  193 1.57030438E-08
  194 1.57556991E-08
  195 1.57998934E-08
  196 1.58359121E-08
  197 1.55885292E-08
  198 1.55802779E-08
  199 1.54899131E-08
  200 1.55680123E-08
  201 1.55117039E-08
  202 1.54647465E-08
  203 1.54337170E-08
  204 1.54898856E-08
  205 1.54623297E-08
  206 1.53962124E-08
  207 1.54284223E-08
  208 1.53875391E-08
  209 1.53390450E-08
  210 1.52822934E-08
  211 1.43277545E-08
  212 1.39616468E-08
  213 1.37565747E-08
  214 1.30162858E-08
  215 1.33347757E-08
  216 1.30953238E-08
  217 1.27673296E-08
  218 1.25133119E-08
  219 1.28465719E-08
  220 1.25919634E-08
  221 1.34284397E-08
  222 1.31919327E-08
  223 1.35376276E-08
  224 1.33061778E-08
  225 1.29455399E-08
  226 1.26926049E-08
  227 1.30644268E-08
  228 1.28155887E-08
  229 1.22588221E-08
  230 1.20095629E-08
  231 1.23360672E-08
  232 1.20846333E-08
  233 1.17722734E-08
  234 1.15544997E-08
  235 1.18445328E-08
  236 1.16235361E-08
  237 1.24376290E-08
  238 1.21863476E-08
  239 1.25640510E-08
  240 1.23154690E-08
  241 1.19456879E-08
  242 1.17235587E-08
  243 1.20767430E-08
  244 1.18558212E-08
  245 1.13641911E-08
  246 1.12091282E-08
  247 1.14298999E-08
  248 1.12717663E-08
  249 1.10962346E-08
  250 1.10308668E-08
  251 1.11564249E-08
  252 1.10895431E-08
  253 1.15284339E-08
  254 1.13687300E-08
  255 1.16612877E-08
  256 1.15017270E-08
  257 1.12733327E-08
  258 1.10162089E-08
  259 1.10528944E-08
  260 1.10745022E-08
  261 1.11119802E-08
  262 1.12261315E-08
  263 1.12427369E-08
  264 1.14195025E-08
  265 1.15675150E-08
  266 1.19132047E-08
  267 1.21676210E-08
  268 1.19887354E-08
  269 1.22455092E-08
  270 1.18047813E-08
  271 1.22830785E-08
  272 1.24317735E-08
  273 1.26992759E-08
  274 1.25113178E-08
  275 1.27796894E-08
  276 1.29648582E-08
  277 1.32243772E-08
  278 1.30453459E-08
  279 1.33041936E-08
  280 1.28089057E-08
  281 1.33308673E-08
  282 1.34747351E-08
  283 1.37137458E-08
  284 1.35532218E-08
  285 1.37903507E-08
  286 1.39399797E-08
  287 1.41526088E-08
  288 1.40142623E-08
  289 1.42242359E-08
  290 1.36471687E-08
  291 1.38806138E-08
  292 1.37564753E-08
  293 1.39843783E-08
  294 1.41005753E-08
  295 1.43064358E-08
  296 1.41987251E-08
  297 1.43989934E-08
  298 1.43512656E-08
  299 1.45124361E-08
  300 1.44200004E-08
  301 1.45784266E-08
  302 1.46828692E-08
  303 1.48399432E-08
  304 1.47457359E-08
  305 1.48996512E-08
  306 1.44755708E-08
  307 1.46525127E-08
  308 1.45628496E-08
  309 1.47344708E-08
  310 1.48156924E-08
  311 1.49655669E-08
  312 1.48925193E-08
  313 1.50374800E-08
  314 1.49841181E-08
  315 1.51159085E-08
  316 1.50406752E-08
  317 1.51693538E-08
  318 1.52358500E-08
  319 1.53444751E-08
  320 1.52862440E-08
  321 1.53918914E-08
  322 1.51026689E-08
  323 1.52275632E-08
  324 1.51699009E-08
  325 1.52903524E-08
  326 1.53408170E-08
  327 1.54429789E-08
  328 1.53993999E-08
  329 1.54975840E-08
  330 1.54422966E-08
  331 1.55297977E-08
  332 1.54868153E-08
  333 1.55714995E-08
  334 1.56074253E-08
  335 1.56755877E-08
  336 1.56463871E-08
  337 1.57118789E-08
  338 1.55345653E-08
  339 1.56160527E-08
  340 1.55854088E-08
  341 1.56633352E-08
  342 1.56878733E-08
  343 1.57504140E-08
  344 1.57317771E-08
  345 1.57911015E-08
  346 1.57346545E-08
  347 1.57849588E-08
  348 1.57683339E-08
  349 1.58160719E-08
  350 1.58268006E-08
  351 1.58604524E-08
  352 1.58553778E-08
  353 1.58865071E-08
  354 1.58040178E-08
  355 1.58489864E-08
  356 1.58416295E-08
  357 1.58836406E-08
  358 1.58855853E-08
  359 1.59140495E-08
  360 1.59173767E-08
  361 1.59430484E-08
  362 1.58861652E-08
  363 1.59041766E-08
  364 1.59096927E-08
  365 1.59251534E-08
  366 1.59331026E-08
  367 1.59345905E-08
  368 1.59474050E-08
  369 1.59608427E-08
  370 1.59709314E-08
  371 1.59526842E-08
  372 1.59506251E-08
  373 1.59734809E-08
  374 1.59686642E-08
  375 1.59414423E-08
  376 1.59566726E-08
  377 1.59377302E-08
  378 1.59121081E-08
  379 1.54840020E-08
  380 1.54999558E-08
  381 1.55068623E-08
  382 1.55570983E-08
  383 1.55657583E-08
  384 1.55288850E-08
  385 1.55374405E-08
  386 1.55148892E-08
  387 1.55241009E-08
  388 1.55467905E-08
  389 1.55568069E-08
  390 1.55344675E-08
  391 1.55458643E-08
  392 1.55867163E-08
  393 1.55745410E-08
  394 1.55831617E-08
  395 1.55926056E-08
  396 1.55972944E-08
  397 1.55912666E-08
  398 1.55984398E-08
  399 1.55672768E-08
  400 1.55779066E-08
  401 1.55580740E-08
  402 1.55707922E-08
  403 1.55883286E-08
  404 1.55981092E-08
  405 1.55836350E-08
  406 1.55961487E-08
  407 1.56003294E-08
  408 1.56012128E-08
  409 1.56042107E-08
  410 1.56080631E-08
  411 1.55994088E-08
  412 1.55943515E-08
  413 1.56094439E-08
  414 1.56077710E-08
  415 1.56067584E-08
  416 1.56137397E-08
  417 1.56078212E-08
  418 1.56180932E-08
  419 1.56184807E-08
  420 1.56203822E-08
  421 1.56263708E-08
  422 1.56320361E-08
  423 1.55854510E-08
  424 1.55334424E-08
  425 1.56024415E-08
  426 1.55549685E-08
  427 1.55152143E-08
  428 1.54913942E-08
  429 1.55405677E-08
  430 1.55207394E-08
  431 1.56188275E-08
  432 1.55761219E-08
  433 1.56344574E-08
  434 1.55967457E-08
  435 1.55722740E-08
  436 1.54613698E-08
  437 1.54245222E-08
  438 1.54948754E-08
  439 1.54623662E-08
  440 1.53802259E-08
  441 1.53278474E-08
  442 1.54226004E-08
  443 1.53749634E-08
  444 1.55287550E-08
  445 1.55008737E-08
  446 1.55628234E-08
  447 1.55398444E-08
  448 1.54659552E-08
  449 1.54234091E-08
  450 1.55100709E-08
  451 1.54729425E-08
  452 1.52667436E-08
  453 1.51962610E-08
  454 1.53188352E-08
  455 1.52535884E-08
  456 1.51785873E-08
  457 1.50931877E-08
  458 1.53726452E-08
  459 1.53130704E-08
  460 1.54279049E-08
  461 1.53744068E-08
  462 1.52440870E-08
  463 1.51650911E-08
  464 1.53118970E-08
  465 1.52398225E-08
  466 1.48071464E-08
  467 1.49967408E-08
  468 1.48886012E-08
  469 1.47179106E-08
  470 1.45777687E-08
  471 1.48065195E-08
  472 1.46738015E-08
  473 1.50754757E-08
  474 1.49746357E-08
  475 1.51576292E-08
  476 1.50647659E-08
  477 1.49005529E-08
  478 1.47762248E-08
  479 1.49994571E-08
  480 1.48844116E-08
  481 1.44235371E-08
  482 1.42548304E-08
  483 1.45274196E-08
  484 1.43669788E-08
  485 1.40714878E-08
  486 1.38736773E-08
  487 1.41922889E-08
  488 1.40034646E-08
  489 1.46388024E-08
  490 1.44879007E-08
  491 1.47569768E-08
  492 1.46167966E-08
  493 1.43233196E-08
  494 1.41451376E-08
  495 1.44636802E-08
  496 1.42976889E-08
  497 1.36620295E-08
  498 1.34377982E-08
  499 1.38010539E-08
  500 1.35861963E-08
  501 1.32030443E-08
  502 1.29608265E-08
  503 1.33608056E-08
  504 1.31277632E-08
  505 1.39538345E-08
  506 1.37504432E-08
  507 1.41192498E-08
  508 1.39292986E-08
  509 1.35245286E-08
  510 1.27153737E-08
  511 1.24721948E-08
  512 1.28910969E-08
  513 1.26561041E-08
  514 1.22202817E-08
  515 1.30887422E-08
  516 1.26696139E-08
  517 1.18437536E-08
  518 1.16166374E-08
  519 1.23237457E-08
  520 1.21137392E-08
  521 1.18768488E-08
  522 1.25799217E-08
  523 1.35300866E-08
  524 1.40580083E-08
  525 1.44635378E-08
  526 1.43507224E-08
  527 1.46934879E-08
  528 1.46587914E-08
  529 1.48239674E-08
  530 1.47629121E-08
  531 1.49205617E-08
  532 1.49759067E-08
  533 1.51151052E-08
  534 1.50654560E-08
  535 1.51980845E-08
  536 1.50068062E-08
  537 1.52723372E-08
  538 1.52421110E-08
  539 1.53574862E-08
  540 1.53189794E-08
  541 1.54286802E-08
  542 1.54617815E-08
  543 1.55555186E-08
  544 1.55277104E-08
  545 1.56165620E-08
  546 1.54935321E-08
  547 1.55968980E-08
  548 1.56804624E-08
  549 1.56690214E-08
  550 1.57469405E-08
  551 1.56391799E-08
  552 1.57132019E-08
  553 1.56956855E-08
  554 1.57654857E-08
  555 1.57779733E-08
  556 1.58338348E-08
  557 1.58263189E-08
  558 1.58784937E-08
  559 1.57547079E-08
  560 1.58199993E-08
  561 1.58160063E-08
  562 1.58765368E-08
  563 1.58766544E-08
  564 1.59249441E-08
  565 1.59288049E-08
  566 1.59730396E-08
  567 1.58810811E-08
  568 1.59199641E-08
  569 1.59222730E-08
  570 1.59578776E-08
  571 1.59506986E-08
  572 1.59734676E-08
  573 1.59854911E-08
  574 1.60052661E-08
  575 1.59650951E-08
  576 1.59972932E-08
  577 1.60094271E-08
  578 1.60381147E-08
  579 1.60216877E-08
  580 1.60383979E-08
  581 1.60592150E-08
  582 1.60728116E-08
  583 1.59884304E-08
  584 1.59957313E-08
  585 1.60173316E-08
  586 1.60218019E-08
  587 1.59955098E-08
  588 1.59879119E-08
  589 1.60187871E-08
  590 1.60084050E-08
  591 1.60475203E-08
  592 1.60491374E-08
  593 1.60789667E-08
  594 1.60777291E-08
  595 1.60433281E-08
  596 1.60301799E-08
  597 1.60691453E-08
  598 1.60532712E-08
  599 1.59731040E-08
  600 1.59512867E-08
  601 1.59907945E-08
  602 1.59661311E-08
  603 1.59227107E-08
  604 1.58876927E-08
  605 1.59346427E-08
  606 1.58966275E-08
  607 1.60098029E-08
  608 1.59823455E-08
  609 1.60301867E-08
  610 1.60000120E-08
  611 1.59480115E-08
  612 1.59070785E-08
  613 1.59629250E-08
  614 1.59191811E-08
  615 1.58524710E-08
  616 1.58026622E-08
  617 1.58599163E-08
  618 1.58070048E-08
  619 1.58691327E-08
  620 1.58132483E-08
  621 1.57489499E-08
  622 1.56864956E-08
  623 1.57521301E-08
  624 1.56865272E-08
  625 1.56173435E-08
  626 1.55472381E-08
  627 1.54745184E-08
  628 1.49284106E-08
  629 1.49583425E-08
  630 1.49033866E-08
  631 1.48744618E-08
  632 1.49130865E-08
  633 1.49373345E-08
  634 1.54003811E-08
  635 1.49465382E-08
  636 1.53972904E-08
  637 1.54185337E-08
  638 1.54298118E-08
  639 1.54529497E-08
  640 1.54379855E-08
  641 1.54436528E-08
  642 1.54138476E-08
  643 1.54234507E-08
  644 1.54090630E-08
  645 1.54167707E-08
  646 1.54298113E-08
  647 1.54335824E-08
  648 1.54210865E-08
  649 1.54227212E-08
  650 1.54584129E-08
  651 1.54625693E-08
  652 1.54474281E-08
  653 1.54498761E-08
  654 1.54663887E-08
  655 1.54699614E-08
  656 1.54521490E-08
  657 1.54543310E-08
  658 1.54354374E-08
  659 1.54360577E-08
  660 1.54224118E-08
  661 1.54209070E-08
  662 1.54364519E-08
  663 1.54370286E-08
  664 1.54192423E-08
  665 1.54179870E-08
  666 1.54737689E-08
  667 1.54782376E-08
  668 1.54569614E-08
  669 1.54605214E-08
  670 1.54837252E-08
  671 1.54905081E-08
  672 1.54654174E-08
  673 1.54719673E-08
  674 1.54382846E-08
  675 1.54407606E-08
  676 1.54176593E-08
  677 1.54188655E-08
  678 1.54449169E-08
  679 1.54511170E-08
  680 1.54221253E-08
  681 1.54278521E-08
  682 1.54987707E-08
  683 1.55085987E-08
  684 1.54803884E-08
  685 1.54907889E-08
  686 1.55199739E-08
  687 1.55327746E-08
  688 1.55031634E-08
  689 1.55173921E-08
  690 1.54535427E-08
  691 1.54812216E-08
  692 1.55467779E-08
  693 1.55616662E-08
  694 1.55332447E-08
  695 1.55503881E-08
  696 1.55814190E-08
  697 1.55186065E-08
  698 1.55628373E-08
  699 1.56142409E-08
  700 1.56419086E-08
  701 1.56095560E-08
  702 1.56534947E-08
  703 1.56592580E-08
  704 1.56257808E-08
  705 1.56890773E-08
  706 1.56770115E-08
  707 1.56070761E-08
  708 1.55638600E-08
  709 1.56797393E-08
  710 1.56601360E-08
  711 1.54920657E-08
  712 1.53816616E-08
  713 1.53169766E-08
  714 1.54530132E-08
  715 1.53961307E-08
  716 1.56148125E-08
  717 1.55409065E-08
  718 1.52476025E-08
  719 1.51071407E-08
  720 1.54359333E-08
  721 1.53374572E-08
  722 1.48855652E-08
  723 1.46182498E-08
  724 1.51654548E-08
  725 1.49567247E-08
  726 1.43060405E-08
  727 1.39558742E-08
  728 1.47125571E-08
  729 1.44387557E-08
  730 1.36962658E-08
  731 1.31762767E-08
  732 1.32085610E-08
  733 1.36918403E-08
  734 1.43813696E-08
  735 1.49917969E-08
  736 1.54794186E-08
  737 1.56628757E-08
  738 1.58174005E-08
  739 1.58419623E-08
  740 1.59681741E-08
  741 1.59391107E-08
  742 1.60298939E-08
  743 1.60666225E-08
  744 1.61382001E-08
  745 1.60910155E-08
  746 1.61231638E-08
  747 1.61833309E-08
  748 1.62019843E-08
  749 1.61265768E-08
  750 1.61012584E-08
  751 1.61937677E-08
  752 1.61581139E-08
  753 1.60520005E-08
  754 1.60192096E-08
  755 1.60752935E-08
  756 1.60400119E-08
  757 1.59794884E-08
  758 1.59330686E-08
  759 1.59978012E-08
  760 1.59488684E-08
  761 1.60945968E-08
  762 1.60179538E-08
  763 1.59666977E-08
  764 1.60400239E-08
  765 1.59866600E-08
  766 1.58802836E-08
  767 1.58215885E-08
  768 1.58935262E-08
  769 1.58322149E-08
  770 1.57575794E-08
  771 1.56890081E-08
  772 1.57655219E-08
  773 1.56941988E-08
  774 1.59090071E-08
  775 1.58453051E-08
  776 1.59268567E-08
  777 1.58610194E-08
  778 1.57761688E-08
  779 1.57023465E-08
  780 1.57897122E-08
  781 1.57155382E-08
  782 1.56167907E-08
  783 1.55438484E-08
  784 1.56208952E-08
  785 1.55436197E-08
  786 1.54680064E-08
  787 1.53920842E-08
  788 1.54648819E-08
  789 1.53860907E-08
  790 1.56267709E-08
  791 1.55468805E-08
  792 1.56361342E-08
  793 1.55539348E-08
  794 1.54655141E-08
  795 1.53841161E-08
  796 1.54702467E-08
  797 1.53865435E-08
  798 1.53175532E-08
  799 1.53087673E-08
  800 1.52344965E-08
  801 1.51648671E-08
  802 1.51014056E-08
  803 1.53042516E-08
  804 1.52275566E-08
  805 1.53044281E-08
  806 1.52255807E-08
  807 1.51556746E-08
  808 1.50901868E-08
  809 1.51516930E-08
  810 1.50843947E-08
  811 1.50325400E-08
  812 1.49839785E-08
  813 1.50251778E-08
  814 1.49753249E-08
  815 1.49454885E-08
  816 1.49358503E-08
  817 1.49074580E-08
  818 1.48905207E-08
  819 1.48850821E-08
  820 1.48908785E-08
  821 1.48522628E-08
  822 1.47698768E-08
  823 1.48141812E-08
  824 1.48643375E-08
  825 1.48272374E-08
  826 1.48772076E-08
  827 1.48849681E-08
  828 1.49232143E-08
  829 1.48960609E-08
  830 1.49337832E-08
  831 1.49560234E-08
  832 1.53943396E-08
  833 1.49657945E-08
  834 1.53915709E-08
  835 1.49077655E-08
  836 1.49448099E-08
  837 1.49201116E-08
  838 1.49563166E-08
  839 1.53781217E-08
  840 1.53890385E-08
  841 1.53781572E-08
  842 1.53868117E-08
  843 1.54042043E-08
  844 1.54097880E-08
  845 1.53993077E-08
  846 1.54025325E-08
  847 1.54062686E-08
  848 1.53921863E-08
  849 1.53828685E-08
  850 1.53984105E-08
  851 1.53881744E-08
  852 1.53632465E-08
  853 1.53414597E-08
  854 1.53821180E-08
  855 1.53854526E-08
  856 1.53267580E-08
  857 1.53245061E-08
  858 1.53869672E-08
  859 1.54856955E-08
  860 1.56240574E-08
  861 1.57538783E-08
  862 1.57968720E-08
  863 1.57909420E-08
  864 1.56863036E-08
  865 1.55514355E-08
  866 1.52901235E-08
  867 1.49903997E-08
  868 1.47565639E-08
  869 1.48382169E-08
  870 1.50542178E-08
  871 1.53841251E-08
  872 1.56905050E-08
  873 1.59618500E-08
  874 1.61631759E-08
  875 1.62879993E-08
  876 1.63302878E-08
  877 1.62811341E-08
  878 1.61484733E-08
  879 1.60640729E-08
  880 1.60088399E-08
  881 1.60901425E-08
  882 1.60333000E-08
  883 1.62090312E-08
  884 1.61045032E-08
  885 1.59471852E-08
  886 1.58794948E-08
  887 1.59700772E-08
  888 1.59008398E-08
  889 1.58063182E-08
  890 1.57305665E-08
  891 1.58281165E-08
  892 1.57491474E-08
  893 1.59745772E-08
  894 1.58515654E-08
  895 1.57714020E-08
  896 1.58783719E-08
  897 1.57974028E-08
  898 1.56492192E-08
  899 1.55650521E-08
  900 1.56662198E-08
  901 1.55804575E-08
  902 1.54793857E-08
  903 1.53937160E-08
  904 1.54931887E-08
  905 1.54059241E-08
  906 1.56872815E-08
  907 1.56003227E-08
  908 1.57124954E-08
  909 1.56247580E-08
  910 1.55118543E-08
  911 1.54233939E-08
  912 1.55355134E-08
  913 1.54462774E-08
  914 1.53096762E-08
  915 1.52289826E-08
  916 1.53203187E-08
  917 1.52381163E-08
  918 1.51533674E-08
  919 1.50845016E-08
  920 1.51610803E-08
  921 1.50909145E-08
  922 1.53366091E-08
  923 1.52532614E-08
  924 1.53587204E-08
  925 1.52746113E-08
  926 1.51751355E-08
  927 1.51039585E-08
  928 1.51957454E-08
  929 1.51238630E-08
  930 1.50239159E-08
  931 1.49729263E-08
  932 1.50291812E-08
  933 1.49772235E-08
  934 1.49325717E-08
  935 1.49035703E-08
  936 1.49361014E-08
  937 1.49065455E-08
  938 1.50413159E-08
  939 1.49885717E-08
  940 1.50605635E-08
  941 1.50072245E-08
  942 1.49468020E-08
  943 1.49167481E-08
  944 1.49649338E-08
  945 1.49344410E-08
  946 1.48862978E-08
  947 1.48807896E-08
  948 1.48889349E-08
  949 1.48832990E-08
  950 1.48867636E-08
  951 1.49036615E-08
  952 1.48893419E-08
  953 1.49064845E-08
  954 1.48987930E-08
  955 1.48929631E-08
  956 1.49161334E-08
  957 1.49100377E-08
  958 1.48989534E-08
  959 1.49161706E-08
  960 1.49158450E-08
  961 1.49329548E-08
  962 1.49307011E-08
  963 1.49669349E-08
  964 1.49339193E-08
  965 1.49706707E-08
  966 1.50113086E-08
  967 1.50156560E-08
  968 1.50677408E-08
  969 1.49437892E-08
  970 1.49808137E-08
  971 1.49605320E-08
  972 1.49975695E-08
  973 1.50261406E-08
  974 1.50786156E-08
  975 1.50429518E-08
  976 1.50955127E-08
  977 1.51257880E-08
  978 1.51886962E-08
  979 1.51370828E-08
  980 1.52004246E-08
  981 1.51540851E-08
  982 1.52175414E-08
  983 1.52675906E-08
  984 1.53376179E-08
  985 1.52848228E-08
  986 1.53549595E-08
  987 1.54096420E-08
  988 1.54270816E-08
  989 1.55004241E-08
  990 1.55743261E-08
  991 1.56482257E-08
  992 1.46590213E-08
  993 1.45123504E-08
  994 1.45906279E-08
  995 1.46749990E-08
  996 1.46076319E-08
  997 1.46927338E-08
  998 1.47184616E-08
  999 1.47839058E-08
  1000 1.47334587E-08
  1001 1.47991521E-08
  1002 1.48412889E-08
  1003 1.48909167E-08
  1004 1.48563949E-08
  1005 1.49055147E-08
  1006 1.47499238E-08
  1007 1.48156922E-08
  1008 1.47679540E-08
  1009 1.48336100E-08
  1010 1.48726213E-08
  1011 1.49210597E-08
  1012 1.48900422E-08
  1013 1.49376194E-08
  1014 1.49331346E-08
  1015 1.49683322E-08
  1016 1.49468777E-08
  1017 1.49808948E-08
  1018 1.53787897E-08
  1019 1.53849774E-08
  1020 1.53801198E-08
  1021 1.53836429E-08
  1022 1.49613935E-08
  1023 1.53738744E-08
  1024 1.49767463E-08
  1025 1.53796039E-08
  1026 1.53822674E-08
  1027 1.53829391E-08
  1028 1.53853734E-08
  1029 1.53830229E-08
  1030 1.53799511E-08
  1031 1.53575271E-08
  1032 1.53687395E-08
  1033 1.53313578E-08
  1034 1.52814844E-08
  1035 1.52195369E-08
  1036 1.52454476E-08
  1037 1.53814791E-08
  1038 1.55904859E-08
  1039 1.58085678E-08
  1040 1.59531597E-08
  1041 1.60524266E-08
  1042 1.61131922E-08
  1043 1.61941374E-08
  1044 1.62331281E-08
  1045 1.62988317E-08
  1046 1.64759962E-08
  1047 1.64655119E-08
  1048 1.64085883E-08
  1049 1.63767392E-08
  1050 1.63812126E-08
  1051 1.64391729E-08
  1052 1.64988300E-08
  1053 1.65315932E-08
  1054 1.65154336E-08
  1055 1.64309240E-08
  1056 1.62603495E-08
  1057 1.60379316E-08
  1058 1.58847119E-08
  1059 1.61105452E-08
  1060 1.59585152E-08
  1061 1.57418923E-08
  1062 1.56538070E-08
  1063 1.57754402E-08
  1064 1.56874424E-08
  1065 1.55642226E-08
  1066 1.54746447E-08
  1067 1.55979598E-08
  1068 1.55084792E-08
  1069 1.57900522E-08
  1070 1.56133928E-08
  1071 1.53867366E-08
  1072 1.53022636E-08
  1073 1.54206472E-08
  1074 1.53362142E-08
  1075 1.52230206E-08
  1076 1.51507503E-08
  1077 1.52569635E-08
  1078 1.51846291E-08
  1079 1.54399728E-08
  1080 1.52832540E-08
  1081 1.50870566E-08
  1082 1.50333230E-08
  1083 1.51208097E-08
  1084 1.50668868E-08
  1085 1.49906434E-08
  1086 1.49597736E-08
  1087 1.50239552E-08
  1088 1.49927740E-08
  1089 1.51565916E-08
  1090 1.50706893E-08
  1091 1.49411058E-08
  1092 1.49346702E-08
  1093 1.49737409E-08
  1094 1.49668926E-08
  1095 1.49401596E-08
  1096 1.49569738E-08
  1097 1.49719296E-08
  1098 1.49882592E-08
  1099 1.50139464E-08
  1100 1.50066179E-08
  1101 1.50615092E-08
  1102 1.50536413E-08
  1103 1.50110732E-08
  1104 1.50267345E-08
  1105 1.50573957E-08
  1106 1.50722164E-08
  1107 1.49842763E-08
  1108 1.50210577E-08
  1109 1.50150523E-08
  1110 1.50513064E-08
  1111 1.50661995E-08
  1112 1.51185320E-08
  1113 1.50959092E-08
  1114 1.51476962E-08
  1115 1.50527888E-08
  1116 1.50882497E-08
  1117 1.50973146E-08
  1118 1.51317286E-08
  1119 1.51320200E-08
  1120 1.51829493E-08
  1121 1.51743853E-08
  1122 1.52241567E-08
  1123 1.51768847E-08
  1124 1.52401269E-08
  1125 1.52055016E-08
  1126 1.52681981E-08
  1127 1.53071970E-08
  1128 1.53771225E-08
  1129 1.53347272E-08
  1130 1.54041185E-08
  1131 1.52398840E-08
  1132 1.53017075E-08
  1133 1.52799092E-08
  1134 1.53405433E-08
  1135 1.53673697E-08
  1136 1.54359074E-08
  1137 1.54050233E-08
  1138 1.54723973E-08
  1139 1.54490320E-08
  1140 1.55221589E-08
  1141 1.54755024E-08
  1142 1.55481135E-08
  1143 1.55958414E-08
  1144 1.56695171E-08
  1145 1.56212907E-08
  1146 1.56944723E-08
  1147 1.55064558E-08
  1148 1.55782538E-08
  1149 1.55418096E-08
  1150 1.56125053E-08
  1151 1.56506428E-08
  1152 1.57230626E-08
  1153 1.56838303E-08
  1154 1.57552274E-08
  1155 1.57427163E-08
  1156 1.58150534E-08
  1157 1.57671889E-08
  1158 1.58390548E-08
  1159 1.58862173E-08
  1160 1.59559624E-08
  1161 1.59097590E-08
  1162 1.59790558E-08
  1163 1.57950448E-08
  1164 1.58662039E-08
  1165 1.58262294E-08
  1166 1.58964515E-08
  1167 1.59362287E-08
  1168 1.60048727E-08
  1169 1.59655818E-08
  1170 1.60333730E-08
  1171 1.41008223E-08
  1172 1.43433967E-08
  1173 1.42486558E-08
  1174 1.43678816E-08
  1175 1.44232624E-08
  1176 1.45304762E-08
  1177 1.44426736E-08
  1178 1.45510967E-08
  1179 1.46267311E-08
  1180 1.47123464E-08
  1181 1.46480731E-08
  1182 1.47339643E-08
  1183 1.44650546E-08
  1184 1.45743905E-08
  1185 1.44906189E-08
  1186 1.46005408E-08
  1187 1.46718121E-08
  1188 1.47577226E-08
  1189 1.46981077E-08
  1190 1.47837639E-08
  1191 1.47876537E-08
  1192 1.48529979E-08
  1193 1.48091353E-08
  1194 1.48739579E-08
  1195 1.49087420E-08
  1196 1.49552735E-08
  1197 1.49288161E-08
  1198 1.49741150E-08
  1199 1.48325203E-08
  1200 1.48966026E-08
  1201 1.48579397E-08
  1202 1.49210564E-08
  1203 1.49503730E-08
  1204 1.49942526E-08
  1205 1.49735356E-08
  1206 1.50158117E-08
  1207 1.49930143E-08
  1208 1.53866017E-08
  1209 1.50102919E-08
  1210 1.53950348E-08
  1211 1.53896527E-08
  1212 1.54091565E-08
  1213 1.54005647E-08
  1214 1.53285563E-08
  1215 1.51798170E-08
  1216 1.50628550E-08
  1217 1.50782156E-08
  1218 1.52569475E-08
  1219 1.55442682E-08
  1220 1.58805297E-08
  1221 1.60989603E-08
  1222 1.63083372E-08
  1223 1.65064454E-08
  1224 1.67740521E-08
  1225 1.70659726E-08
  1226 1.74333932E-08
  1227 1.78269862E-08
  1228 1.78286747E-08
  1229 1.75525948E-08
  1230 1.72127769E-08
  1231 1.69864263E-08
  1232 1.68660089E-08
  1233 1.68055171E-08
  1234 1.67606192E-08
  1235 1.66979294E-08
  1236 1.65906858E-08
  1237 1.64182460E-08
  1238 1.61671470E-08
  1239 1.58494800E-08
  1240 1.55236048E-08
  1241 1.52822916E-08
  1242 1.51400906E-08
  1243 1.51449865E-08
  1244 1.52739218E-08
  1245 1.52750187E-08
  1246 1.51913532E-08
  1247 1.52227764E-08
  1248 1.52711088E-08
  1249 1.52768890E-08
  1250 1.53235268E-08
  1251 1.53155080E-08
  1252 1.53890119E-08
  1253 1.53253861E-08
  1254 1.53845323E-08
  1255 1.53760604E-08
  1256 1.54334436E-08
  1257 1.54475313E-08
  1258 1.55134473E-08
  1259 1.54946852E-08
  1260 1.55588695E-08
  1261 1.54877267E-08
  1262 1.56038024E-08
  1263 1.56369397E-08
  1264 1.57752803E-08
  1265 1.57302532E-08
  1266 1.58613906E-08
  1267 1.59133702E-08
  1268 1.60481136E-08
  1269 1.59929013E-08
  1270 1.61217168E-08
  1271 1.14252603E-08
  1272 1.17052914E-08
  1273 1.20452873E-08
  1274 1.23556620E-08
  1275 1.20444819E-08
  1276 1.23653789E-08
  1277 1.26480346E-08
  1278 1.29214294E-08
  1279 1.26663558E-08
  1280 1.29466379E-08
  1281 1.33844701E-08
  1282 1.36074828E-08
  1283 1.38076311E-08
  1284 1.31754928E-08
  1285 1.34182843E-08
  1286 1.32060846E-08
  1287 1.34530748E-08
  1288 1.36373159E-08
  1289 1.38379430E-08
  1290 1.36750755E-08
  1291 1.38777473E-08
  1292 1.39617611E-08
  1293 1.41263059E-08
  1294 1.39903375E-08
  1295 1.41568353E-08
  1296 1.42759512E-08
  1297 1.43961552E-08
  1298 1.43077789E-08
  1299 1.44284663E-08
  1300 1.40249203E-08
  1301 1.41927473E-08
  1302 1.40619626E-08
  1303 1.42343587E-08
  1304 1.43444229E-08
  1305 1.44806977E-08
  1306 1.43861514E-08
  1307 1.45221083E-08
  1308 1.45195816E-08
  1309 1.46297343E-08
  1310 1.45521569E-08
  1311 1.46621587E-08
  1312 1.47271250E-08
  1313 1.48122381E-08
  1314 1.47590330E-08
  1315 1.48433020E-08
  1316 1.45885555E-08
  1317 1.46980017E-08
  1318 1.46289807E-08
  1319 1.47374474E-08
  1320 1.48554930E-08
  1321 1.49322246E-08
  1322 1.50326639E-08
  1323 1.49954796E-08
  1324 1.50883904E-08
  1325 1.54508404E-08
  1326 1.53192914E-08
  1327 1.50983415E-08
  1328 1.49239189E-08
  1329 1.49298999E-08
  1330 1.51531744E-08
  1331 1.55349801E-08
  1332 1.59372463E-08
  1333 1.62999686E-08
  1334 1.65415772E-08
  1335 1.68460147E-08
  1336 1.72490911E-08
  1337 1.77138690E-08
  1338 1.82785132E-08
  1339 1.87854487E-08
  1340 1.87932314E-08
  1341 1.83793508E-08
  1342 1.78526057E-08
  1343 1.74578880E-08
  1344 1.72105609E-08
  1345 1.70613158E-08
  1346 1.69591809E-08
  1347 1.68655717E-08
  1348 1.67500036E-08
  1349 1.65908842E-08
  1350 1.63684798E-08
  1351 1.60913732E-08
  1352 1.58062527E-08
  1353 1.55893326E-08
  1354 1.55046310E-08
  1355 1.55640220E-08
  1356 1.57308827E-08
  1357 1.59535901E-08
  1358 1.61909830E-08
  1359 8.31042856E-09
  1360 8.17423184E-09
  1361 8.26115080E-09
  1362 8.14366686E-09
  1363 8.21917736E-09
  1364 8.39426034E-09
  1365 8.65661496E-09
  1366 9.37794814E-09
  1367 8.99374290E-09
  1368 9.38215386E-09
  1369 9.78751480E-09
  1370 1.01847265E-08
  1371 9.76548394E-09
  1372 1.02163472E-08
  1373 1.10233124E-08
  1374 1.06057805E-08
  1375 1.10206217E-08
  1376 1.14144368E-08
  1377 1.17918049E-08
  1378 1.14254019E-08
  1379 1.18141930E-08
  1380 1.06165960E-08
  1381 1.10446147E-08
  1382 1.06599048E-08
  1383 1.10978271E-08
  1384 1.14604792E-08
  1385 1.18582467E-08
  1386 1.15216798E-08
  1387 1.19255453E-08
  1388 1.21415444E-08
  1389 1.24802301E-08
  1390 1.21829676E-08
  1391 1.25188815E-08
  1392 1.26977576E-08
  1393 1.29836256E-08
  1394 1.28411756E-08
  1395 1.31394684E-08
  1396 1.22339996E-08
  1397 1.25747600E-08
  1398 1.23056372E-08
  1399 1.26598699E-08
  1400 1.29006200E-08
  1401 1.32011345E-08
  1402 1.29760991E-08
  1403 1.32769201E-08
  1404 1.32472443E-08