# File generated by Flopy version 3.9.1 on 02/10/2026 at 20:59:31.
BEGIN options
END options

BEGIN timing
  TDIS6  triangle_caseB.tdis
END timing

BEGIN models
  gwf6  triangle_caseB.nam  triangle_caseb
END models

BEGIN exchanges
END exchanges

BEGIN solutiongroup  1
  ims6  triangle_caseB.ims  triangle_caseb
END solutiongroup  1

