# File generated by Flopy version 3.9.1 on 02/10/2026 at 20:59:33.
BEGIN options
  SAVE_FLOWS
END options

BEGIN dimensions
  MAXBOUND  22297
  NSEG  1
END dimensions

BEGIN period  1
  1 4       6.00000000  5.41472735E-09       2.00000000
  1 5       7.00000000  7.12212357E-09       2.00000000
  1 6       7.00000000  7.12212357E-09       2.00000000
  1 7      16.00000000  5.16263769E-09       2.00000000
  1 9       7.00000000  5.60560318E-09       2.00000000
  1 10      12.00000000  4.94252232E-09       2.00000000
  1 11       5.00000000  7.52461877E-09       2.00000000
  1 12       4.00000000  7.52461877E-09       2.00000000
  1 13       9.00000000  6.56850601E-09       2.00000000
  1 15       6.00000000  7.12212357E-09       2.00000000
  1 16       5.00000000  7.12212357E-09       2.00000000
  1 17       7.00000000  5.60560318E-09       2.00000000
  1 18       6.00000000  7.12212357E-09       2.00000000
  1 19      10.00000000  7.12212357E-09       2.00000000
  1 20       4.00000000  7.52461877E-09       2.00000000
  1 21      11.00000000  7.12212357E-09       2.00000000
  1 23      17.00000000  5.16263769E-09       2.00000000
  1 24       7.00000000  7.12212357E-09       2.00000000
  1 25      11.00000000  7.12212357E-09       2.00000000
  1 26      27.00000000  5.17568735E-09       2.00000000
  1 27      -1.00000000  6.56850601E-09       2.00000000
  1 28      10.00000000  6.93370199E-09       2.00000000
  1 29       5.00000000  5.41472735E-09       2.00000000
  1 30      11.00000000  6.93370199E-09       2.00000000
  1 31      12.00000000  6.93370199E-09       2.00000000
  1 33      12.00000000  6.47479560E-09       2.00000000
  1 34      12.00000000  6.93370199E-09       2.00000000
  1 36       2.00000000  8.74246587E-09       2.00000000
  1 38       7.00000000  7.12212357E-09       2.00000000
  1 40      12.00000000  6.93370199E-09       2.00000000
  1 42       7.00000000  7.12212357E-09       2.00000000
  1 43       0.00000000  6.18848871E-09       2.00000000
  1 44      12.00000000  6.93370199E-09       2.00000000
  1 47      16.00000000  6.18725029E-09       2.00000000
  1 48       4.00000000  6.13235768E-09       2.00000000
  1 49       6.00000000  7.35242202E-09       2.00000000
  1 50       1.00000000  7.35242202E-09       2.00000000
  1 51       2.00000000  7.35242202E-09       2.00000000
  1 52       4.00000000  7.35242202E-09       2.00000000
  1 54       8.00000000  5.17367903E-09       2.00000000
  1 55       2.00000000  8.53181778E-09       2.00000000
  1 56      -2.00000000  7.21006588E-09       2.00000000
  1 57      18.00000000  6.13235768E-09       2.00000000
  1 58      -1.00000000  8.53181778E-09       2.00000000
  1 59       1.00000000  7.35242202E-09       2.00000000
  1 60       1.00000000  7.35242202E-09       2.00000000
  1 61       2.00000000  7.78920944E-09       2.00000000
  1 62       2.00000000  7.17050283E-09       2.00000000
  1 63      30.00000000  5.18395902E-09       2.00000000
  1 64       8.00000000  6.70086231E-09       2.00000000
  1 65       5.00000000  7.12212357E-09       2.00000000
  1 66       9.00000000  6.45633161E-09       2.00000000
  1 67      10.00000000  6.70086231E-09       2.00000000
  1 68      10.00000000  6.70086231E-09       2.00000000
  1 69      10.00000000  6.70086231E-09       2.00000000
  1 70      10.00000000  6.70086231E-09       2.00000000
  1 71       9.00000000  6.70086231E-09       2.00000000
  1 72       6.00000000  7.12212357E-09       2.00000000
  1 73      14.00000000  6.70086231E-09       2.00000000
  1 74       9.00000000  6.70086231E-09       2.00000000
  1 75      12.00000000  6.70086231E-09       2.00000000
  1 76       9.00000000  6.70086231E-09       2.00000000
  1 77       9.00000000  6.70086231E-09       2.00000000
  1 78      10.00000000  6.70086231E-09       2.00000000
  1 79       8.00000000  6.70086231E-09       2.00000000
  1 80      10.00000000  6.70086231E-09       2.00000000
  1 81       8.00000000  6.70086231E-09       2.00000000
  1 82       9.00000000  6.70086231E-09       2.00000000
  1 83       9.00000000  6.70086231E-09       2.00000000
  1 84       7.00000000  6.70086231E-09       2.00000000
  1 85       8.00000000  6.70086231E-09       2.00000000
  1 86       9.00000000  6.70086231E-09       2.00000000
  1 87      12.00000000  6.70086231E-09       2.00000000
  1 88       9.00000000  6.70086231E-09       2.00000000
  1 89      17.00000000  6.47479560E-09       2.00000000
  1 90      10.00000000  6.70086231E-09       2.00000000
  1 91      16.00000000  6.47479560E-09       2.00000000
  1 93      27.00000000  5.17568735E-09       2.00000000
  1 94      10.00000000  5.15882071E-09       2.00000000
  1 95      65.00000000  6.54063331E-09       2.00000000
  1 97      87.00000000  6.54063331E-09       2.00000000
  1 98      79.00000000  4.08616829E-09       2.00000000
  1 99      78.00000000  4.08616829E-09       2.00000000
  1 100       8.00000000  3.35428263E-09       2.00000000
  1 101       4.00000000  6.13235768E-09       2.00000000
  1 103      15.00000000  6.93370199E-09       2.00000000
  1 105       0.00000000  6.56850601E-09       2.00000000
  1 106       8.00000000  6.93370199E-09       2.00000000
  1 108       7.00000000  6.12114201E-09       2.00000000
  1 109       8.00000000  6.44512622E-09       2.00000000
  1 110      29.00000000  6.47479560E-09       2.00000000
  1 111       2.00000000  6.56850601E-09       2.00000000
  1 112      18.00000000  6.47479560E-09       2.00000000
  1 113       9.00000000  6.44512622E-09       2.00000000
  1 114       8.00000000  6.26691066E-09       2.00000000
  1 115       9.00000000  6.44512622E-09       2.00000000
  1 116       9.00000000  6.44512622E-09       2.00000000
  1 117       8.00000000  6.44512622E-09       2.00000000
  1 118       8.00000000  6.26691066E-09       2.00000000
  1 119      10.00000000  6.44512622E-09       2.00000000
  1 120      10.00000000  6.44512622E-09       2.00000000
  1 121      10.00000000  6.44512622E-09       2.00000000
  1 122       9.00000000  6.44512622E-09       2.00000000
  1 123      10.00000000  6.44512622E-09       2.00000000
  1 124       9.00000000  6.44512622E-09       2.00000000
  1 125       8.00000000  6.44512622E-09       2.00000000
  1 126       8.00000000  6.44512622E-09       2.00000000
  1 127       8.00000000  6.44512622E-09       2.00000000
  1 128       8.00000000  6.26691066E-09       2.00000000
  1 129      10.00000000  6.26691066E-09       2.00000000
  1 130       9.00000000  6.44512622E-09       2.00000000
  1 131      10.00000000  6.26691066E-09       2.00000000
  1 132       9.00000000  6.26691066E-09       2.00000000
  1 133       9.00000000  6.26691066E-09       2.00000000
  1 134      10.00000000  6.26691066E-09       2.00000000
  1 135      10.00000000  6.26691066E-09       2.00000000
  1 136       9.00000000  6.44512622E-09       2.00000000
  1 137       7.00000000  6.44512622E-09       2.00000000
  1 138       7.00000000  6.26691066E-09       2.00000000
  1 139       7.00000000  6.26691066E-09       2.00000000
  1 140       6.00000000  6.12114201E-09       2.00000000
  1 141       6.00000000  6.26691066E-09       2.00000000
  1 142       6.00000000  6.12114201E-09       2.00000000
  1 143       7.00000000  6.26691066E-09       2.00000000
  1 144       8.00000000  6.26691066E-09       2.00000000
  1 145       8.00000000  6.26691066E-09       2.00000000
  1 146       7.00000000  6.26691066E-09       2.00000000
  1 147       6.00000000  6.12114201E-09       2.00000000
  1 148       8.00000000  6.26691066E-09       2.00000000
  1 149       6.00000000  6.12114201E-09       2.00000000
  1 150       6.00000000  6.12114201E-09       2.00000000
  1 151       6.00000000  6.26691066E-09       2.00000000
  1 152       7.00000000  6.12114201E-09       2.00000000
  1 153       7.00000000  6.26691066E-09       2.00000000
  1 154       7.00000000  6.26691066E-09       2.00000000
  1 155       7.00000000  6.26691066E-09       2.00000000
  1 156       7.00000000  6.26691066E-09       2.00000000
  1 157       7.00000000  6.26691066E-09       2.00000000
  1 158       8.00000000  6.26691066E-09       2.00000000
  1 159       8.00000000  6.26691066E-09       2.00000000
  1 160       6.00000000  6.12114201E-09       2.00000000
  1 161       9.00000000  6.26691066E-09       2.00000000
  1 162       9.00000000  6.26691066E-09       2.00000000
  1 163       9.00000000  6.26691066E-09       2.00000000
  1 164       8.00000000  6.26691066E-09       2.00000000
  1 165       9.00000000  6.26691066E-09       2.00000000
  1 166      10.00000000  6.26691066E-09       2.00000000
  1 167      10.00000000  6.26691066E-09       2.00000000
  1 168       9.00000000  6.26691066E-09       2.00000000
  1 169       9.00000000  6.26691066E-09       2.00000000
  1 170       8.00000000  6.26691066E-09       2.00000000
  1 171       7.00000000  6.26691066E-09       2.00000000
  1 172       8.00000000  6.26691066E-09       2.00000000
  1 173       8.00000000  6.26691066E-09       2.00000000
  1 174       7.00000000  6.26691066E-09       2.00000000
  1 175       8.00000000  6.26691066E-09       2.00000000
  1 176       8.00000000  6.26691066E-09       2.00000000
  1 177       7.00000000  6.26691066E-09       2.00000000
  1 178       8.00000000  6.26691066E-09       2.00000000
  1 179       9.00000000  6.26691066E-09       2.00000000
  1 180       8.00000000  6.26691066E-09       2.00000000
  1 181       9.00000000  6.26691066E-09       2.00000000
  1 182       8.00000000  6.26691066E-09       2.00000000
  1 183       8.00000000  6.26691066E-09       2.00000000
  1 184       7.00000000  6.26691066E-09       2.00000000
  1 185      10.00000000  6.44512622E-09       2.00000000
  1 186      17.00000000  6.47479560E-09       2.00000000
  1 188       7.00000000  6.12114201E-09       2.00000000
  1 189       5.00000000  6.12114201E-09       2.00000000
  1 190       6.00000000  6.12114201E-09       2.00000000
  1 191       7.00000000  6.12114201E-09       2.00000000
  1 192       6.00000000  6.12114201E-09       2.00000000
  1 193       8.00000000  6.12114201E-09       2.00000000
  1 194       6.00000000  6.12114201E-09       2.00000000
  1 195       8.00000000  6.12114201E-09       2.00000000
  1 196       7.00000000  6.12114201E-09       2.00000000
  1 197       7.00000000  6.12114201E-09       2.00000000
  1 198       6.00000000  6.12114201E-09       2.00000000
  1 199       5.00000000  6.12114201E-09       2.00000000
  1 200       4.00000000  6.12114201E-09       2.00000000
  1 201       5.00000000  6.12114201E-09       2.00000000
  1 202       5.00000000  6.12114201E-09       2.00000000
  1 203       5.00000000  6.12114201E-09       2.00000000
  1 204       5.00000000  6.12114201E-09       2.00000000
  1 205       5.00000000  6.12114201E-09       2.00000000
  1 206       5.00000000  6.12114201E-09       2.00000000
  1 207       6.00000000  6.12114201E-09       2.00000000
  1 208       5.00000000  6.12114201E-09       2.00000000
  1 209       7.00000000  6.12114201E-09       2.00000000
  1 210       4.00000000  6.12114201E-09       2.00000000
  1 211       8.00000000  6.12114201E-09       2.00000000
  1 212       9.00000000  6.12114201E-09       2.00000000
  1 213       9.00000000  6.12114201E-09       2.00000000
  1 214       8.00000000  6.12114201E-09       2.00000000
  1 215       9.00000000  6.12114201E-09       2.00000000
  1 216      10.00000000  6.12114201E-09       2.00000000
  1 217       9.00000000  6.12114201E-09       2.00000000
  1 218       9.00000000  6.12114201E-09       2.00000000
  1 219       8.00000000  6.12114201E-09       2.00000000
  1 220       9.00000000  6.12114201E-09       2.00000000
  1 221       7.00000000  6.12114201E-09       2.00000000
  1 222       8.00000000  6.12114201E-09       2.00000000
  1 223       8.00000000  6.12114201E-09       2.00000000
  1 224       7.00000000  6.12114201E-09       2.00000000
  1 225       8.00000000  6.12114201E-09       2.00000000
  1 226       8.00000000  6.12114201E-09       2.00000000
  1 227       9.00000000  6.12114201E-09       2.00000000
  1 228       7.00000000  6.12114201E-09       2.00000000
  1 229       8.00000000  6.12114201E-09       2.00000000
  1 230       6.00000000  6.12114201E-09       2.00000000
  1 231       9.00000000  6.12114201E-09       2.00000000
  1 232       8.00000000  6.12114201E-09       2.00000000
  1 233       8.00000000  6.12114201E-09       2.00000000
  1 234       8.00000000  6.12114201E-09       2.00000000
  1 235       4.00000000  6.12114201E-09       2.00000000
  1 236       4.00000000  6.12114201E-09       2.00000000
  1 237       4.00000000  6.12114201E-09       2.00000000
  1 238       4.00000000  6.12114201E-09       2.00000000
  1 239       5.00000000  6.12114201E-09       2.00000000
  1 240       5.00000000  6.12114201E-09       2.00000000
  1 241       5.00000000  6.12114201E-09       2.00000000
  1 242       4.00000000  6.12114201E-09       2.00000000
  1 243       5.00000000  6.12114201E-09       2.00000000
  1 244       4.00000000  6.12114201E-09       2.00000000
  1 245       4.00000000  6.12114201E-09       2.00000000
  1 246       4.00000000  6.12114201E-09       2.00000000
  1 247       4.00000000  6.12114201E-09       2.00000000
  1 248       4.00000000  6.13235768E-09       2.00000000
  1 249       4.00000000  6.12114201E-09       2.00000000
  1 250       4.00000000  6.12114201E-09       2.00000000
  1 251       4.00000000  6.12114201E-09       2.00000000
  1 252       4.00000000  6.12114201E-09       2.00000000
  1 253       5.00000000  6.12114201E-09       2.00000000
  1 254       4.00000000  6.12114201E-09       2.00000000
  1 255       5.00000000  6.12114201E-09       2.00000000
  1 256       4.00000000  6.12114201E-09       2.00000000
  1 257       5.00000000  6.12114201E-09       2.00000000
  1 258       5.00000000  6.12114201E-09       2.00000000
  1 259       5.00000000  6.12114201E-09       2.00000000
  1 260       5.00000000  6.12114201E-09       2.00000000
  1 261       6.00000000  6.12114201E-09       2.00000000
  1 262       5.00000000  6.12114201E-09       2.00000000
  1 263       6.00000000  6.12114201E-09       2.00000000
  1 264       6.00000000  6.12114201E-09       2.00000000
  1 265       6.00000000  6.12114201E-09       2.00000000
  1 266       5.00000000  6.12114201E-09       2.00000000
  1 267       5.00000000  6.12114201E-09       2.00000000
  1 268       5.00000000  6.12114201E-09       2.00000000
  1 269       5.00000000  6.12114201E-09       2.00000000
  1 270       5.00000000  6.12114201E-09       2.00000000
  1 271       6.00000000  6.12114201E-09       2.00000000
  1 272       6.00000000  6.12114201E-09       2.00000000
  1 273       7.00000000  6.12114201E-09       2.00000000
  1 274       5.00000000  6.12114201E-09       2.00000000
  1 275       6.00000000  6.12114201E-09       2.00000000
  1 276       5.00000000  6.12114201E-09       2.00000000
  1 277       6.00000000  6.12114201E-09       2.00000000
  1 278       5.00000000  6.12114201E-09       2.00000000
  1 279       5.00000000  6.12114201E-09       2.00000000
  1 280       5.00000000  6.12114201E-09       2.00000000
  1 281       9.00000000  6.12114201E-09       2.00000000
  1 282       5.00000000  6.13235768E-09       2.00000000
  1 283       9.00000000  6.12114201E-09       2.00000000
  1 284      10.00000000  6.12114201E-09       2.00000000
  1 285       8.00000000  6.12114201E-09       2.00000000
  1 286       9.00000000  6.12114201E-09       2.00000000
  1 287       8.00000000  6.12114201E-09       2.00000000
  1 288       8.00000000  6.12114201E-09       2.00000000
  1 289       7.00000000  6.12114201E-09       2.00000000
  1 290       7.00000000  6.12114201E-09       2.00000000
  1 291       6.00000000  6.12114201E-09       2.00000000
  1 292       8.00000000  6.12114201E-09       2.00000000
  1 293       9.00000000  6.12114201E-09       2.00000000
  1 294       8.00000000  6.12114201E-09       2.00000000
  1 295      10.00000000  6.12114201E-09       2.00000000
  1 296       9.00000000  6.12114201E-09       2.00000000
  1 297       7.00000000  6.12114201E-09       2.00000000
  1 298       9.00000000  6.12114201E-09       2.00000000
  1 299       8.00000000  6.12114201E-09       2.00000000
  1 300       6.00000000  6.12114201E-09       2.00000000
  1 301       6.00000000  6.12114201E-09       2.00000000
  1 302       8.00000000  6.12114201E-09       2.00000000
  1 303       6.00000000  6.12114201E-09       2.00000000
  1 304       7.00000000  6.12114201E-09       2.00000000
  1 305       7.00000000  6.26691066E-09       2.00000000
  1 306       7.00000000  6.26691066E-09       2.00000000
  1 307       9.00000000  6.26691066E-09       2.00000000
  1 308       7.00000000  6.26691066E-09       2.00000000
  1 309       8.00000000  6.26691066E-09       2.00000000
  1 310      10.00000000  6.26691066E-09       2.00000000
  1 311      10.00000000  6.26691066E-09       2.00000000
  1 312       8.00000000  6.26691066E-09       2.00000000
  1 313       8.00000000  6.26691066E-09       2.00000000
  1 314      10.00000000  6.26691066E-09       2.00000000
  1 315       7.00000000  6.26691066E-09       2.00000000
  1 316       6.00000000  6.26691066E-09       2.00000000
  1 317       6.00000000  6.12114201E-09       2.00000000
  1 318       5.00000000  6.12114201E-09       2.00000000
  1 319       9.00000000  6.26691066E-09       2.00000000
  1 320       6.00000000  6.12114201E-09       2.00000000
  1 321      10.00000000  6.26691066E-09       2.00000000
  1 322       8.00000000  6.26691066E-09       2.00000000
  1 323       8.00000000  6.26691066E-09       2.00000000
  1 324      10.00000000  6.26691066E-09       2.00000000
  1 325      10.00000000  6.26691066E-09       2.00000000
  1 326       7.00000000  6.26691066E-09       2.00000000
  1 327       6.00000000  6.12114201E-09       2.00000000
  1 328       7.00000000  6.26691066E-09       2.00000000
  1 329       7.00000000  6.12114201E-09       2.00000000
  1 330       8.00000000  6.12114201E-09       2.00000000
  1 331       7.00000000  6.12114201E-09       2.00000000
  1 332       7.00000000  6.12114201E-09       2.00000000
  1 333       9.00000000  6.12114201E-09       2.00000000
  1 334      10.00000000  6.12114201E-09       2.00000000
  1 335       8.00000000  6.12114201E-09       2.00000000
  1 336       9.00000000  6.12114201E-09       2.00000000
  1 337      10.00000000  6.12114201E-09       2.00000000
  1 338      10.00000000  6.12114201E-09       2.00000000
  1 339       9.00000000  6.12114201E-09       2.00000000
  1 340      10.00000000  6.12114201E-09       2.00000000
  1 341       6.00000000  6.12114201E-09       2.00000000
  1 342       8.00000000  6.12114201E-09       2.00000000
  1 343       8.00000000  6.12114201E-09       2.00000000
  1 344      10.00000000  6.12114201E-09       2.00000000
  1 345       7.00000000  6.12114201E-09       2.00000000
  1 346      10.00000000  6.12114201E-09       2.00000000
  1 347      10.00000000  6.12114201E-09       2.00000000
  1 348       7.00000000  6.12114201E-09       2.00000000
  1 349       9.00000000  6.12114201E-09       2.00000000
  1 350      10.00000000  6.12114201E-09       2.00000000
  1 351       6.00000000  6.12114201E-09       2.00000000
  1 352       5.00000000  6.12114201E-09       2.00000000
  1 353       6.00000000  6.12114201E-09       2.00000000
  1 354       8.00000000  6.26691066E-09       2.00000000
  1 355      10.00000000  6.26691066E-09       2.00000000
  1 356      10.00000000  6.26691066E-09       2.00000000
  1 357      10.00000000  6.26691066E-09       2.00000000
  1 358       6.00000000  6.12114201E-09       2.00000000
  1 359      10.00000000  6.26691066E-09       2.00000000
  1 360      10.00000000  6.26691066E-09       2.00000000
  1 361       5.00000000  6.12114201E-09       2.00000000
  1 362       7.00000000  6.12114201E-09       2.00000000
  1 363       8.00000000  6.26691066E-09       2.00000000
  1 364       5.00000000  6.12114201E-09       2.00000000
  1 365       9.00000000  6.26691066E-09       2.00000000
  1 366       6.00000000  6.12114201E-09       2.00000000
  1 367       9.00000000  6.26691066E-09       2.00000000
  1 368       8.00000000  6.26691066E-09       2.00000000
  1 369      10.00000000  6.26691066E-09       2.00000000
  1 370       7.00000000  6.12114201E-09       2.00000000
  1 371       9.00000000  6.26691066E-09       2.00000000
  1 372       7.00000000  6.12114201E-09       2.00000000
  1 373      10.00000000  6.26691066E-09       2.00000000
  1 374       9.00000000  6.12114201E-09       2.00000000
  1 375      10.00000000  6.26691066E-09       2.00000000
  1 376      10.00000000  6.12114201E-09       2.00000000
  1 377       8.00000000  6.26691066E-09       2.00000000
  1 378       8.00000000  6.26691066E-09       2.00000000
  1 379       9.00000000  6.26691066E-09       2.00000000
  1 380       4.00000000  6.12114201E-09       2.00000000
  1 381      95.00000000  6.29567724E-09       2.00000000
  1 382       4.00000000  3.97582856E-09       2.00000000
  1 383       4.00000000  5.41472735E-09       2.00000000
  1 384      17.00000000  5.16263769E-09       2.00000000
  1 385      78.00000000  6.30254678E-09       2.00000000
  1 386      74.00000000  4.08616829E-09       2.00000000
  1 387      19.00000000  4.26248370E-09       2.00000000
  1 388      79.00000000  6.30254678E-09       2.00000000
  1 389      73.00000000  4.08616829E-09       2.00000000
  1 390      67.00000000  4.08616829E-09       2.00000000
  1 391      14.00000000  3.20441540E-09       2.00000000
  1 392       7.00000000  6.44512622E-09       2.00000000
  1 393      19.00000000  6.49129167E-09       2.00000000
  1 394      18.00000000  6.29732185E-09       2.00000000
  1 395      17.00000000  6.49129167E-09       2.00000000
  1 396      18.00000000  6.49129167E-09       2.00000000
  1 397      20.00000000  6.01411307E-09       2.00000000
  1 398      20.00000000  6.49129167E-09       2.00000000
  1 399      14.00000000  5.16263769E-09       2.00000000
  1 400      71.00000000  6.30254678E-09       2.00000000
  1 401      19.00000000  4.19050616E-09       2.00000000
  1 402      15.00000000  6.49129167E-09       2.00000000
  1 403      16.00000000  6.49129167E-09       2.00000000
  1 404      11.00000000  6.46347855E-09       2.00000000
  1 405      18.00000000  6.29732185E-09       2.00000000
  1 406      18.00000000  6.29732185E-09       2.00000000
  1 407      19.00000000  6.29732185E-09       2.00000000
  1 408      18.00000000  6.49129167E-09       2.00000000
  1 409      19.00000000  6.29732185E-09       2.00000000
  1 410      12.00000000  6.46347855E-09       2.00000000
  1 411      13.00000000  6.49129167E-09       2.00000000
  1 412      15.00000000  6.49129167E-09       2.00000000
  1 413      15.00000000  6.46347855E-09       2.00000000
  1 414      17.00000000  6.49129167E-09       2.00000000
  1 415      17.00000000  6.46347855E-09       2.00000000
  1 416      11.00000000  6.46347855E-09       2.00000000
  1 417      10.00000000  6.46347855E-09       2.00000000
  1 418      12.00000000  6.46347855E-09       2.00000000
  1 419      12.00000000  6.46347855E-09       2.00000000
  1 420      18.00000000  6.49129167E-09       2.00000000
  1 421      18.00000000  6.29732185E-09       2.00000000
  1 422      20.00000000  6.29732185E-09       2.00000000
  1 423      19.00000000  6.29732185E-09       2.00000000
  1 424      17.00000000  6.49129167E-09       2.00000000
  1 425      16.00000000  6.49129167E-09       2.00000000
  1 426      19.00000000  6.29732185E-09       2.00000000
  1 427      19.00000000  6.49129167E-09       2.00000000
  1 428      16.00000000  6.49129167E-09       2.00000000
  1 429      18.00000000  6.49129167E-09       2.00000000
  1 430      16.00000000  6.49129167E-09       2.00000000
  1 431      19.00000000  6.49129167E-09       2.00000000
  1 432      19.00000000  6.49129167E-09       2.00000000
  1 433      16.00000000  6.49129167E-09       2.00000000
  1 434      16.00000000  6.49129167E-09       2.00000000
  1 435      15.00000000  6.49129167E-09       2.00000000
  1 436      15.00000000  6.49129167E-09       2.00000000
  1 437      15.00000000  6.49129167E-09       2.00000000
  1 438      14.00000000  6.49129167E-09       2.00000000
  1 439      17.00000000  6.49129167E-09       2.00000000
  1 440      17.00000000  6.49129167E-09       2.00000000
  1 441      18.00000000  6.49129167E-09       2.00000000
  1 442      17.00000000  6.49129167E-09       2.00000000
  1 443      15.00000000  6.49129167E-09       2.00000000
  1 444      18.00000000  6.49129167E-09       2.00000000
  1 445      18.00000000  6.49129167E-09       2.00000000
  1 446      14.00000000  6.49129167E-09       2.00000000
  1 447      19.00000000  6.49129167E-09       2.00000000
  1 448      19.00000000  6.49129167E-09       2.00000000
  1 449      20.00000000  6.49129167E-09       2.00000000
  1 450      19.00000000  6.49129167E-09       2.00000000
  1 451      19.00000000  6.49129167E-09       2.00000000
  1 452      20.00000000  6.49129167E-09       2.00000000
  1 453      18.00000000  6.49129167E-09       2.00000000
  1 454      18.00000000  6.46347855E-09       2.00000000
  1 455      19.00000000  6.46347855E-09       2.00000000
  1 456      20.00000000  6.49129167E-09       2.00000000
  1 457      19.00000000  6.49129167E-09       2.00000000
  1 458      19.00000000  6.49129167E-09       2.00000000
  1 459      19.00000000  6.49129167E-09       2.00000000
  1 460      19.00000000  6.49129167E-09       2.00000000
  1 461      20.00000000  6.49129167E-09       2.00000000
  1 462      19.00000000  6.49129167E-09       2.00000000
  1 463      19.00000000  6.49129167E-09       2.00000000
  1 464      20.00000000  6.49129167E-09       2.00000000
  1 465      20.00000000  6.49129167E-09       2.00000000
  1 466      18.00000000  6.49129167E-09       2.00000000
  1 467      14.00000000  6.46347855E-09       2.00000000
  1 468      19.00000000  6.49129167E-09       2.00000000
  1 469      19.00000000  6.49129167E-09       2.00000000
  1 470      18.00000000  6.49129167E-09       2.00000000
  1 471      11.00000000  6.46347855E-09       2.00000000
  1 472      14.00000000  6.49129167E-09       2.00000000
  1 473     149.00000000  6.26257138E-09       2.00000000
  1 474       1.00000000  4.01222033E-09       2.00000000
  1 475      16.00000000  5.16263769E-09       2.00000000
  1 476      20.00000000  6.57449743E-09       2.00000000
  1 477     108.00000000  6.26257138E-09       2.00000000
  1 478       5.00000000  3.96855704E-09       2.00000000
  1 479      86.00000000  6.29826162E-09       2.00000000
  1 480     109.00000000  4.02310629E-09       2.00000000
  1 482     139.00000000  6.21237080E-09       2.00000000
  1 483      18.00000000  4.08278078E-09       2.00000000
  1 484      18.00000000  6.46971930E-09       2.00000000
  1 485      18.00000000  6.29732185E-09       2.00000000
  1 486      18.00000000  6.29732185E-09       2.00000000
  1 487      19.00000000  6.29732185E-09       2.00000000
  1 488      20.00000000  6.01411307E-09       2.00000000
  1 489     124.00000000  6.26257138E-09       2.00000000
  1 490      20.00000000  4.08278078E-09       2.00000000
  1 491       1.00000000  6.18848871E-09       2.00000000
  1 492      18.00000000  6.29732185E-09       2.00000000
  1 493      82.00000000  6.29826162E-09       2.00000000
  1 494       5.00000000  3.96855704E-09       2.00000000
  1 495      82.00000000  6.29826162E-09       2.00000000
  1 496      87.00000000  4.08339007E-09       2.00000000
  1 497      83.00000000  4.08339007E-09       2.00000000
  1 498      83.00000000  4.08339007E-09       2.00000000
  1 499      83.00000000  4.08339007E-09       2.00000000
  1 500      85.00000000  4.08339007E-09       2.00000000
  1 502      83.00000000  6.29826162E-09       2.00000000
  1 504      19.00000000  6.46971930E-09       2.00000000
  1 505      85.00000000  6.29826162E-09       2.00000000
  1 506      83.00000000  4.08339007E-09       2.00000000
  1 507      20.00000000  4.19455226E-09       2.00000000
  1 508      82.00000000  6.29826162E-09       2.00000000
  1 509      19.00000000  4.19455226E-09       2.00000000
  1 510      20.00000000  6.46971930E-09       2.00000000
  1 511      17.00000000  6.46971930E-09       2.00000000
  1 512      16.00000000  6.46971930E-09       2.00000000
  1 513      83.00000000  6.29826162E-09       2.00000000
  1 514      19.00000000  4.19455226E-09       2.00000000
  1 515      19.00000000  6.01411307E-09       2.00000000
  1 516      83.00000000  6.29826162E-09       2.00000000
  1 518      20.00000000  6.46971930E-09       2.00000000
  1 519      13.00000000  6.46347855E-09       2.00000000
  1 520      16.00000000  6.46347855E-09       2.00000000
  1 521      19.00000000  6.46347855E-09       2.00000000
  1 522      12.00000000  6.46347855E-09       2.00000000
  1 523      16.00000000  6.46971930E-09       2.00000000
  1 524      16.00000000  6.46347855E-09       2.00000000
  1 525      18.00000000  6.46971930E-09       2.00000000
  1 526      19.00000000  6.46971930E-09       2.00000000
  1 527      17.00000000  6.46347855E-09       2.00000000
  1 528      16.00000000  6.46971930E-09       2.00000000
  1 529      10.00000000  6.46347855E-09       2.00000000
  1 530       9.00000000  6.46347855E-09       2.00000000
  1 531      10.00000000  6.46347855E-09       2.00000000
  1 532      20.00000000  6.46347855E-09       2.00000000
  1 533      13.00000000  6.46347855E-09       2.00000000
  1 534      10.00000000  6.46347855E-09       2.00000000
  1 535      14.00000000  6.46347855E-09       2.00000000
  1 536      11.00000000  6.46347855E-09       2.00000000
  1 537       9.00000000  6.46347855E-09       2.00000000
  1 538      13.00000000  6.46971930E-09       2.00000000
  1 539      19.00000000  6.46971930E-09       2.00000000