# File generated by Flopy version 3.9.1 on 02/10/2026 at 20:59:33.
BEGIN options
  FIXED_CELL
  PRINT_FLOWS
  SAVE_FLOWS
END options

BEGIN dimensions
  MAXBOUND  25262
END dimensions

BEGIN period  1
  1 1 1.78102091E-08
  1 2 1.80431255E-08
  1 3 1.32205598E-08
  1 4 1.57056429E-08
  1 5 1.96433345E-08
  1 6 1.99983811E-08
  1 7 1.76072131E-08
  1 8 1.41791185E-08
  1 9 1.50289441E-08
  1 10 1.82565358E-08
  1 11 1.88917501E-08
  1 12 1.83700647E-08
  1 13 1.39170998E-08
  1 14 1.33202613E-08
  1 15 1.96922860E-08
  1 16 1.92929044E-08
  1 17 1.50126275E-08
  1 18 1.96254956E-08
  1 19 2.04459556E-08
  1 20 1.81199070E-08
  1 21 1.96461455E-08
  1 22 1.39940630E-08
  1 23 1.76369472E-08
  1 24 1.96947742E-08
  1 25 1.99371004E-08
  1 26 1.71236200E-08
  1 27 1.39457047E-08
  1 28 2.08052636E-08
  1 29 1.57166114E-08
  1 30 2.05664519E-08
  1 31 2.05728692E-08
  1 32 1.29987208E-08
  1 33 2.05688023E-08
  1 34 2.07364698E-08
  1 35 1.14771542E-08
  1 36 1.30454827E-08
  1 37 1.29270419E-08
  1 38 2.00688719E-08
  1 39 1.31515886E-08
  1 40 2.06914410E-08
  1 41 1.43225490E-08
  1 42 1.96167409E-08
  1 43 1.40336514E-08
  1 44 2.11682878E-08
  1 45 1.20607543E-08
  1 46 1.09656291E-08
  1 47 1.46098701E-08
  1 48 1.50279009E-08
  1 49 1.82509394E-08
  1 50 1.58062661E-08
  1 51 1.67458026E-08
  1 52 1.79985742E-08
  1 53 1.12972672E-08
  1 54 1.58953485E-08
  1 55 1.50168393E-08
  1 56 9.09399892E-09
  1 57 1.50234675E-08
  1 58 1.49177223E-08
  1 59 1.53338573E-08
  1 60 1.53070325E-08
  1 61 1.49430912E-08
  1 62 1.51926060E-08
  1 63 1.59482614E-08
  1 64 1.77038353E-08
  1 65 1.91052299E-08
  1 66 1.38696441E-08
  1 67 1.79837116E-08
  1 68 1.82761592E-08
  1 69 1.83891065E-08
  1 70 1.80802849E-08
  1 71 1.83056074E-08
  1 72 1.96291985E-08
  1 73 1.87207708E-08
  1 74 1.84195382E-08
  1 75 1.89454655E-08
  1 76 1.80715113E-08
  1 77 1.75993016E-08
  1 78 1.77771462E-08
  1 79 1.76340821E-08
  1 80 1.73918733E-08
  1 81 1.75772027E-08
  1 82 1.75168706E-08
  1 83 1.79005116E-08
  1 84 1.74732867E-08
  1 85 1.78907356E-08
  1 86 1.71979940E-08
  1 87 1.83950698E-08
  1 88 1.75544234E-08
  1 89 2.08882654E-08
  1 90 1.72313097E-08
  1 91 2.09078721E-08
  1 92 7.40157509E-09
  1 93 1.71276809E-08
  1 94 1.63647698E-08
  1 95 1.79838871E-09
  1 96 1.31012693E-08
  1 97 1.79558092E-09
  1 98 1.80431556E-09
  1 99 1.79425977E-09
  1 100 1.59099828E-08
  1 101 1.50252202E-08
  1 102 1.43305690E-08
  1 103 1.93863321E-08
  1 104 1.27216155E-08
  1 105 1.40108450E-08
  1 106 2.01062140E-08
  1 107 1.31345614E-08
  1 108 1.45265466E-08
  1 109 1.41470273E-08
  1 110 1.86921994E-08
  1 111 1.39871818E-08
  1 112 2.02335187E-08
  1 113 1.40369289E-08
  1 114 1.45548838E-08
  1 115 1.42957445E-08
  1 116 1.41847169E-08
  1 117 1.43723989E-08
  1 118 1.44946074E-08
  1 119 1.42570311E-08
  1 120 1.41115533E-08
  1 121 1.41111851E-08
  1 122 1.43634189E-08
  1 123 1.38807900E-08
  1 124 1.43607584E-08
  1 125 1.43444047E-08
  1 126 1.44043227E-08
  1 127 1.43409150E-08
  1 128 1.44118308E-08
  1 129 1.45894465E-08
  1 130 1.44363429E-08
  1 131 1.45488858E-08
  1 132 1.45133943E-08
  1 133 1.45041647E-08
  1 134 1.46651915E-08
  1 135 1.47908437E-08
  1 136 1.37260464E-08
  1 137 1.46907368E-08
  1 138 1.46651290E-08
  1 139 1.48089664E-08
  1 140 1.48139933E-08
  1 141 1.49296448E-08
  1 142 1.49250997E-08
  1 143 1.48604828E-08
  1 144 1.47104067E-08
  1 145 1.47351027E-08
  1 146 1.48277477E-08
  1 147 1.47299655E-08
  1 148 1.48167545E-08
  1 149 1.49363007E-08
  1 150 1.49861337E-08
  1 151 1.49984334E-08
  1 152 1.49550329E-08
  1 153 1.50225461E-08
  1 154 1.49415402E-08
  1 155 1.50250813E-08
  1 156 1.50230869E-08
  1 157 1.49597866E-08
  1 158 1.50957735E-08
  1 159 1.48299147E-08
  1 160 1.48443749E-08
  1 161 1.48260618E-08
  1 162 1.47916010E-08
  1 163 1.48164748E-08
  1 164 1.48786855E-08
  1 165 1.48659368E-08
  1 166 1.47689145E-08
  1 167 1.47341894E-08
  1 168 1.48516248E-08
  1 169 1.47005417E-08
  1 170 1.49154445E-08
  1 171 1.49772206E-08
  1 172 1.48551503E-08
  1 173 1.48774116E-08
  1 174 1.50058163E-08
  1 175 1.48423555E-08
  1 176 1.47879304E-08
  1 177 1.49762441E-08
  1 178 1.49134776E-08
  1 179 1.49279303E-08
  1 180 1.50710965E-08
  1 181 1.47975284E-08
  1 182 1.48592034E-08
  1 183 1.46607774E-08
  1 184 1.49835338E-08
  1 185 1.42900755E-08
  1 186 2.07064861E-08
  1 187 1.39064505E-08
  1 188 1.50085937E-08
  1 189 1.51226006E-08
  1 190 1.51298026E-08
  1 191 1.51568395E-08
  1 192 1.51910905E-08
  1 193 1.51790168E-08
  1 194 1.51172833E-08
  1 195 1.51723680E-08
  1 196 1.51850921E-08
  1 197 1.51561815E-08
  1 198 1.52239627E-08
  1 199 1.51558343E-08
  1 200 1.51778155E-08
  1 201 1.51891566E-08
  1 202 1.51687147E-08
  1 203 1.52009787E-08
  1 204 1.51737174E-08
  1 205 1.52226081E-08
  1 206 1.51711592E-08
  1 207 1.51676138E-08
  1 208 1.51912682E-08
  1 209 1.52010983E-08
  1 210 1.51156568E-08
  1 211 1.52091290E-08
  1 212 1.51504420E-08
  1 213 1.51966333E-08
  1 214 1.52340267E-08
  1 215 1.52204033E-08
  1 216 1.49956537E-08
  1 217 1.51992655E-08
  1 218 1.51258847E-08
  1 219 1.51003868E-08
  1 220 1.52502787E-08
  1 221 1.52439743E-08
  1 222 1.52385975E-08
  1 223 1.52708320E-08
  1 224 1.52679019E-08
  1 225 1.53028208E-08
  1 226 1.52966742E-08
  1 227 1.53347890E-08
  1 228 1.52899877E-08
  1 229 1.52459809E-08
  1 230 1.52222332E-08
  1 231 1.53997089E-08
  1 232 1.51848540E-08
  1 233 1.50945326E-08
  1 234 1.53883956E-08
  1 235 1.51932834E-08
  1 236 1.51926185E-08
  1 237 1.52150747E-08
  1 238 1.52142986E-08
  1 239 1.52495163E-08
  1 240 1.52152940E-08
  1 241 1.52236452E-08
  1 242 1.52655719E-08
  1 243 1.51670301E-08
  1 244 1.52303343E-08
  1 245 1.52175079E-08
  1 246 1.52106122E-08
  1 247 1.52338735E-08
  1 248 1.51848444E-08
  1 249 1.52839769E-08
  1 250 1.52618601E-08
  1 251 1.53171299E-08
  1 252 1.52522039E-08
  1 253 1.52548088E-08
  1 254 1.52604916E-08
  1 255 1.52842991E-08
  1 256 1.51848782E-08
  1 257 1.52537495E-08
  1 258 1.52187158E-08
  1 259 1.52591558E-08
  1 260 1.53147937E-08
  1 261 1.52608657E-08
  1 262 1.52077602E-08
  1 263 1.53214833E-08
  1 264 1.52790844E-08
  1 265 1.52724106E-08
  1 266 1.53106406E-08
  1 267 1.53821563E-08
  1 268 1.53948230E-08
  1 269 1.54056685E-08
  1 270 1.53360439E-08
  1 271 1.54527464E-08
  1 272 1.53804500E-08
  1 273 1.53923716E-08
  1 274 1.54194683E-08
  1 275 1.53416238E-08
  1 276 1.53606124E-08
  1 277 1.54343440E-08
  1 278 1.52327549E-08
  1 279 1.51961028E-08
  1 280 1.54689733E-08
  1 281 1.52858077E-08
  1 282 1.50195624E-08
  1 283 1.50371148E-08
  1 284 1.50436488E-08
  1 285 1.49941612E-08
  1 286 1.51022220E-08
  1 287 1.51979574E-08
  1 288 1.51182516E-08
  1 289 1.50906118E-08
  1 290 1.51622106E-08
  1 291 1.51804960E-08
  1 292 1.51740287E-08
  1 293 1.52450749E-08
  1 294 1.51556665E-08
  1 295 1.51728265E-08
  1 296 1.52173890E-08
  1 297 1.53105402E-08
  1 298 1.52205683E-08
  1 299 1.52521795E-08
  1 300 1.53089982E-08
  1 301 1.52160942E-08
  1 302 1.52548442E-08
  1 303 1.52480725E-08
  1 304 1.51308430E-08
  1 305 1.50611684E-08
  1 306 1.51565448E-08
  1 307 1.52703515E-08
  1 308 1.53297366E-08
  1 309 1.50639739E-08
  1 310 1.52488066E-08
  1 311 1.53571674E-08
  1 312 1.52091651E-08
  1 313 1.51401477E-08
  1 314 1.53228360E-08
  1 315 1.53304559E-08
  1 316 1.52993824E-08
  1 317 1.53340128E-08
  1 318 1.53145401E-08
  1 319 1.53434497E-08
  1 320 1.52358081E-08
  1 321 1.53893383E-08
  1 322 1.54295395E-08
  1 323 1.52732775E-08
  1 324 1.54309981E-08
  1 325 1.52781774E-08
  1 326 1.51639105E-08
  1 327 1.51009792E-08
  1 328 1.54019005E-08
  1 329 1.52458863E-08
  1 330 1.51963972E-08
  1 331 1.52378166E-08
  1 332 1.52312908E-08
  1 333 1.53240058E-08
  1 334 1.52810984E-08
  1 335 1.53121841E-08
  1 336 1.54447670E-08
  1 337 1.52868777E-08
  1 338 1.53011563E-08
  1 339 1.52429287E-08
  1 340 1.52208045E-08
  1 341 1.54784175E-08
  1 342 1.52194526E-08
  1 343 1.53078453E-08
  1 344 1.52999379E-08
  1 345 1.53230971E-08
  1 346 1.53800074E-08
  1 347 1.52758573E-08
  1 348 1.53833434E-08
  1 349 1.54244336E-08
  1 350 1.51429398E-08
  1 351 1.53978493E-08
  1 352 1.54209813E-08
  1 353 1.53659528E-08
  1 354 1.54219634E-08
  1 355 1.54946278E-08
  1 356 1.54360002E-08
  1 357 1.55487436E-08
  1 358 1.54247450E-08
  1 359 1.54732712E-08
  1 360 1.56257854E-08
  1 361 1.54854260E-08
  1 362 1.54191535E-08
  1 363 1.59442569E-08
  1 364 1.55460788E-08
  1 365 1.60068751E-08
  1 366 1.54900472E-08
  1 367 1.58868299E-08
  1 368 1.60020410E-08
  1 369 1.56014205E-08
  1 370 1.59309072E-08
  1 371 1.59888021E-08
  1 372 1.53658493E-08
  1 373 1.55178347E-08
  1 374 1.54754609E-08
  1 375 1.53403779E-08
  1 376 1.51688367E-08
  1 377 1.44237322E-08
  1 378 1.60398696E-08
  1 379 1.49507796E-08
  1 380 1.52032497E-08
  1 381 1.82661056E-09
  1 382 1.50284111E-08
  1 383 1.49800309E-08
  1 384 1.79989819E-08
  1 385 1.82284038E-09
  1 386 1.82230279E-09
  1 387 1.38428986E-08
  1 388 1.82051418E-09
  1 389 1.81366725E-09
  1 390 1.81535651E-09
  1 391 1.82925628E-08
  1 392 1.47067070E-08
  1 393 1.53647179E-08
  1 394 1.57445533E-08
  1 395 1.54220969E-08
  1 396 1.53989659E-08
  1 397 1.70857479E-08
  1 398 1.53762340E-08
  1 399 1.80423558E-08
  1 400 1.81226866E-09
  1 401 1.54122547E-08
  1 402 1.54308752E-08
  1 403 1.54113547E-08
  1 404 1.53908276E-08
  1 405 1.57777782E-08
  1 406 1.57965036E-08
  1 407 1.58219648E-08
  1 408 1.56327208E-08
  1 409 1.60017578E-08
  1 410 1.53869862E-08
  1 411 1.53892923E-08
  1 412 1.53958424E-08
  1 413 1.53953348E-08
  1 414 1.53455139E-08
  1 415 1.53328909E-08
  1 416 1.53776359E-08
  1 417 1.53553613E-08
  1 418 1.53629457E-08
  1 419 1.53807248E-08
  1 420 1.53527843E-08
  1 421 1.57164698E-08
  1 422 1.58621849E-08
  1 423 1.59286952E-08
  1 424 1.53390189E-08
  1 425 1.53088020E-08
  1 426 1.57823817E-08
  1 427 1.53278306E-08
  1 428 1.53180982E-08
  1 429 1.53700718E-08
  1 430 1.53351393E-08
  1 431 1.53337941E-08
  1 432 1.53207448E-08
  1 433 1.53193832E-08
  1 434 1.53332976E-08
  1 435 1.52883240E-08
  1 436 1.52874442E-08
  1 437 1.52987237E-08
  1 438 1.52590643E-08
  1 439 1.53558566E-08
  1 440 1.53428963E-08
  1 441 1.53816900E-08
  1 442 1.53351399E-08
  1 443 1.52963294E-08
  1 444 1.53688890E-08
  1 445 1.53769919E-08
  1 446 1.52583666E-08
  1 447 1.53703885E-08
  1 448 1.53578325E-08
  1 449 1.53451269E-08
  1 450 1.53442986E-08
  1 451 1.53536429E-08
  1 452 1.53443395E-08
  1 453 1.53417681E-08
  1 454 1.53270488E-08
  1 455 1.53203039E-08
  1 456 1.53418763E-08
  1 457 1.53326367E-08
  1 458 1.53319973E-08
  1 459 1.53339168E-08
  1 460 1.53251645E-08
  1 461 1.53344701E-08
  1 462 1.53323183E-08
  1 463 1.53395097E-08
  1 464 1.53274384E-08
  1 465 1.53353888E-08
  1 466 1.53201937E-08
  1 467 1.53057361E-08
  1 468 1.53388850E-08
  1 469 1.54113680E-08
  1 470 1.53238491E-08
  1 471 1.52952635E-08
  1 472 1.52626806E-08
  1 473 1.82983747E-09
  1 474 1.41815014E-08
  1 475 1.74861120E-08
  1 476 1.38712854E-08
  1 477 1.78860915E-09
  1 478 1.51977516E-08
  1 479 1.75559716E-09
  1 480 1.78238871E-09
  1 481 9.41901442E-09
  1 482 1.85446841E-09
  1 483 1.57918518E-08
  1 484 1.46670994E-08
  1 485 1.57747032E-08
  1 486 1.58080365E-08
  1 487 1.58758632E-08
  1 488 1.70832108E-08
  1 489 1.83978877E-09
  1 490 1.58562082E-08
  1 491 1.42322939E-08
  1 492 1.57380903E-08
  1 493 1.76021705E-09
  1 494 1.52063751E-08
  1 495 1.75199865E-09
  1 496 1.73985166E-09
  1 497 1.74976402E-09
  1 498 1.75071682E-09
  1 499 1.74640834E-09
  1 500 1.74663505E-09
  1 501 1.39292187E-08
  1 502 1.74730050E-09
  1 503 1.22006001E-08
  1 504 1.49407763E-08
  1 505 1.74896094E-09
  1 506 1.75163891E-09
  1 507 1.49013313E-08
  1 508 1.75853181E-09
  1 509 1.48078170E-08
  1 510 1.47048769E-08
  1 511 1.48411128E-08
  1 512 1.47059612E-08
  1 513 1.74823405E-09
  1 514 1.46442364E-08
  1 515 1.70581667E-08
  1 516 1.75005490E-09
  1 517 1.01941988E-08
  1 518 1.47821212E-08
  1 519 1.53108036E-08
  1 520 1.53187590E-08
  1 521 1.53379562E-08
  1 522 1.52946255E-08
  1 523 1.45779545E-08
  1 524 1.52818873E-08
  1 525 1.46212593E-08
  1 526 1.47715041E-08
  1 527 1.53224285E-08
  1 528 1.46096119E-08
  1 529 1.52796592E-08
  1 530 1.52915198E-08
  1 531 1.52659898E-08
  1 532 1.53189789E-08
  1 533 1.52500849E-08
  1 534 1.52608629E-08
  1 535 1.52138172E-08
  1 536 1.52428951E-08
  1 537 1.52813013E-08
  1 538 1.44370727E-08
  1 539 1.46582489E-08
  1 540 1.53327996E-08
  1 541 1.45219832E-08
  1 542 1.45355966E-08
  1 543 1.45982800E-08
  1 544 1.47337545E-08
  1 545 1.47427493E-08
  1 546 1.46770662E-08
  1 547 1.45467905E-08
  1 548 1.44634178E-08
  1 549 1.46522786E-08
  1 550 1.45614554E-08
  1 551 1.43868980E-08
  1 552 1.44790216E-08
  1 553 1.43687536E-08
  1 554 1.43602883E-08
  1 555 1.41758794E-08
  1 556 1.42871303E-08
  1 557 1.40866050E-08
  1 558 1.43714148E-08
  1 559 1.44761028E-08
  1 560 1.53361906E-08
  1 561 1.42849663E-08
  1 562 1.44784506E-08
  1 563 1.46014613E-08
  1 564 1.53313112E-08
  1 565 1.38851986E-08
  1 566 1.53447234E-08
  1 567 1.38978962E-08
  1 568 1.52137884E-08
  1 569 1.42794676E-08
  1 570 1.40214592E-08
  1 571 1.41787855E-08
  1 572 1.41399443E-08
  1 573 1.45171759E-08
  1 574 1.45207557E-08
  1 575 1.45886172E-08
  1 576 1.43946528E-08
  1 577 1.38144761E-08
  1 578 1.44710571E-08
  1 579 1.40627423E-08
  1 580 1.41654381E-08
  1 581 1.42661183E-08
  1 582 1.41607020E-08
  1 583 1.44389566E-08
  1 584 1.43439071E-08
  1 585 1.42816960E-08
  1 586 1.45305005E-08
  1 587 1.44523809E-08
  1 588 1.43198550E-08
  1 589 1.45850660E-08
  1 590 1.40181262E-08
  1 591 1.44910521E-08
  1 592 1.44404667E-08
  1 593 1.44591807E-08
  1 594 1.44989250E-08
  1 595 1.46557158E-08
  1 596 1.45443945E-08
  1 597 1.47045783E-08
  1 598 1.45935105E-08
  1 599 1.45769972E-08
  1 600 1.45945242E-08
  1 601 1.46586025E-08
  1 602 1.46441613E-08
  1 603 1.47136380E-08
  1 604 1.46115583E-08
  1 605 1.47951053E-08
  1 606 1.47431141E-08
  1 607 1.48287176E-08
  1 608 1.46796029E-08
  1 609 1.46486090E-08
  1 610 1.46831021E-08
  1 611 1.45610598E-08
  1 612 1.45104043E-08
  1 613 1.39154682E-08
  1 614 1.48847477E-08
  1 615 1.42869723E-08
  1 616 1.42439010E-08
  1 617 1.44042228E-08
  1 618 1.43452586E-08
  1 619 1.43892173E-08
  1 620 1.40994343E-08
  1 621 1.45365652E-08
  1 622 1.43940602E-08
  1 623 1.43039006E-08
  1 624 1.44571304E-08
  1 625 1.48500525E-08
  1 626 1.46218086E-08
  1 627 1.45791750E-08
  1 628 1.47252348E-08
  1 629 1.47782205E-08
  1 630 1.47304981E-08
  1 631 1.44722897E-08
  1 632 1.47833542E-08
  1 633 1.45316650E-08
  1 634 1.46932433E-08
  1 635 1.44365906E-08
  1 636 1.41812936E-08
  1 637 1.44531773E-08
  1 638 1.44154239E-08
  1 639 1.45411546E-08
  1 640 1.45204726E-08
  1 641 1.46201562E-08
  1 642 1.46238849E-08
  1 643 1.48171609E-08
  1 644 1.47172146E-08
  1 645 1.44568857E-08
  1 646 1.45668597E-08
  1 647 1.47980347E-08
  1 648 1.46178705E-08
  1 649 1.46978339E-08
  1 650 1.48202706E-08
  1 651 1.47273555E-08
  1 652 1.46298867E-08
  1 653 1.47017899E-08
  1 654 1.46151798E-08
  1 655 1.45450293E-08
  1 656 1.47266990E-08
  1 657 1.47795612E-08
  1 658 1.44910957E-08
  1 659 1.45311654E-08
  1 660 1.47581680E-08
  1 661 1.48826183E-08
  1 662 1.40860695E-08
  1 663 1.48680665E-08
  1 664 1.46706847E-08
  1 665 1.50098483E-08
  1 666 1.49496357E-08
  1 667 1.49960207E-08
  1 668 1.50314588E-08
  1 669 1.50632288E-08
  1 670 1.49124636E-08
  1 671 1.50860872E-08
  1 672 1.50378116E-08
  1 673 1.47138142E-08
  1 674 1.47584790E-08
  1 675 1.49575412E-08
  1 676 1.49962507E-08
  1 677 1.51804177E-08
  1 678 1.50205382E-08
  1 679 1.51143159E-08
  1 680 1.52344528E-08
  1 681 1.52287126E-08
  1 682 1.50472089E-08
  1 683 1.52010221E-08
  1 684 1.48140658E-08
  1 685 1.52813743E-08
  1 686 1.52376592E-08
  1 687 1.53204581E-08
  1 688 1.53209484E-08
  1 689 1.53382804E-08
  1 690 1.53598998E-08
  1 691 1.53589316E-08
  1 692 1.53305555E-08
  1 693 1.53644944E-08
  1 694 1.53493831E-08
  1 695 1.52629036E-08
  1 696 1.52765371E-08
  1 697 1.53121389E-08
  1 698 1.52557146E-08
  1 699 1.53300287E-08
  1 700 1.53085900E-08
  1 701 1.53692739E-08
  1 702 1.53237652E-08
  1 703 1.53553235E-08
  1 704 1.53528369E-08
  1 705 1.53659429E-08
  1 706 1.52448099E-08
  1 707 1.52951124E-08
  1 708 1.53038630E-08
  1 709 1.47465218E-08
  1 710 1.47552856E-08
  1 711 1.48074301E-08
  1 712 1.48320397E-08
  1 713 1.47574347E-08
  1 714 1.47633340E-08
  1 715 1.48175141E-08
  1 716 1.47306861E-08
  1 717 1.46590426E-08
  1 718 1.48077786E-08
  1 719 1.48676546E-08
  1 720 1.48208350E-08
  1 721 1.48633026E-08
  1 722 1.53712379E-08
  1 723 1.48863086E-08
  1 724 1.48447099E-08
  1 725 1.49806023E-08
  1 726 1.48909805E-08
  1 727 1.48702189E-08
  1 728 1.49626673E-08
  1 729 1.48377713E-08
  1 730 1.46866138E-08
  1 731 1.50522942E-08
  1 732 1.49236246E-08
  1 733 1.50244418E-08
  1 734 1.49150993E-08
  1 735 1.53321135E-08
  1 736 1.52179607E-08
  1 737 1.53637459E-08
  1 738 1.53424680E-08
  1 739 1.53208945E-08
  1 740 1.52950535E-08
  1 741 1.52450998E-08
  1 742 1.50882525E-08
  1 743 1.51570744E-08
  1 744 1.52762370E-08
  1 745 1.53438989E-08
  1 746 1.52610854E-08
  1 747 1.53475253E-08
  1 748 1.49447798E-08
  1 749 1.53090318E-08
  1 750 1.51408617E-08
  1 751 1.53381335E-08
  1 752 1.49248822E-08
  1 753 1.48103206E-08
  1 754 1.49253222E-08
  1 755 1.53680339E-08
  1 756 1.45957318E-08
  1 757 1.53052956E-08
  1 758 1.49493064E-08
  1 759 1.48373835E-08
  1 760 1.41315134E-08
  1 761 9.84821758E-09
  1 762 1.42474154E-08
  1 763 1.46024113E-08
  1 764 1.45928957E-08
  1 765 1.46031443E-08
  1 766 1.45999372E-08
  1 767 1.46138150E-08
  1 768 1.46083713E-08
  1 769 1.45962448E-08
  1 770 1.45896078E-08
  1 771 1.45479122E-08
  1 772 1.43532202E-08
  1 773 1.38641481E-08
  1 774 1.45465306E-08
  1 775 1.45741897E-08
  1 776 1.45586205E-08
  1 777 1.45966894E-08
  1 778 1.45546285E-08
  1 779 1.45894622E-08
  1 780 1.45505177E-08
  1 781 1.46113539E-08
  1 782 1.45955799E-08
  1 783 1.46223511E-08
  1 784 1.46031099E-08
  1 785 1.46055882E-08
  1 786 1.46246676E-08
  1 787 1.46305700E-08
  1 788 1.46389366E-08
  1 789 1.46360915E-08
  1 790 1.46325296E-08
  1 791 1.46248122E-08
  1 792 1.46325268E-08
  1 793 1.46088456E-08
  1 794 1.46203889E-08
  1 795 1.46179273E-08
  1 796 1.46208203E-08
  1 797 1.46303426E-08
  1 798 1.46316152E-08
  1 799 1.46346604E-08
  1 800 1.46236353E-08
  1 801 1.46225458E-08
  1 802 1.46142002E-08
  1 803 1.46371719E-08
  1 804 1.46159628E-08
  1 805 1.45515065E-08
  1 806 1.43654872E-08
  1 807 1.42709645E-08
  1 808 1.43434625E-08
  1 809 1.42879651E-08
  1 810 1.42773798E-08
  1 811 1.42918417E-08
  1 812 1.42826149E-08
  1 813 1.42985712E-08
  1 814 1.42800013E-08
  1 815 1.42944862E-08
  1 816 1.42820925E-08
  1 817 1.42421386E-08
  1 818 1.42919686E-08
  1 819 1.42573578E-08
  1 820 1.42480314E-08
  1 821 1.42639518E-08
  1 822 1.42655827E-08
  1 823 1.42767119E-08
  1 824 1.42533807E-08
  1 825 1.42693935E-08
  1 826 1.42400644E-08
  1 827 1.42686665E-08
  1 828 1.45429572E-08
  1 829 1.43191611E-08
  1 830 1.43319518E-08
  1 831 1.42897971E-08
  1 832 1.42865099E-08
  1 833 1.43594440E-08
  1 834 1.43493824E-08
  1 835 1.43043757E-08
  1 836 1.43513585E-08
  1 837 1.43268441E-08
  1 838 1.43595814E-08
  1 839 1.42781810E-08
  1 840 1.42842511E-08
  1 841 1.42758739E-08
  1 842 1.42691579E-08
  1 843 1.42721974E-08
  1 844 1.42936130E-08
  1 845 1.42880776E-08
  1 846 1.42775505E-08
  1 847 1.42874067E-08
  1 848 1.42514238E-08
  1 849 1.42869080E-08
  1 850 1.43049604E-08
  1 851 1.43668625E-08
  1 852 1.42655132E-08
  1 853 1.46263299E-08
  1 854 1.46634842E-08
  1 855 1.47047885E-08
  1 856 1.46724580E-08
  1 857 1.46837338E-08
  1 858 1.46736839E-08
  1 859 1.47237203E-08
  1 860 1.47122066E-08
  1 861 1.47271208E-08
  1 862 1.47242416E-08
  1 863 1.46587804E-08
  1 864 1.46844631E-08
  1 865 1.46621299E-08
  1 866 1.46552021E-08
  1 867 1.46611281E-08
  1 868 1.46450510E-08
  1 869 1.46741895E-08
  1 870 1.46643070E-08
  1 871 1.46899417E-08
  1 872 1.46819824E-08
  1 873 1.46715123E-08
  1 874 1.46623146E-08
  1 875 1.46817906E-08
  1 876 1.46207350E-08
  1 877 1.47379402E-08
  1 878 1.47392873E-08
  1 879 1.47356852E-08
  1 880 1.47368434E-08
  1 881 1.47435045E-08
  1 882 1.47510228E-08
  1 883 1.47421973E-08
  1 884 1.47447253E-08
  1 885 1.47479343E-08
  1 886 1.47356533E-08
  1 887 1.47195014E-08
  1 888 1.47301159E-08
  1 889 1.47265100E-08
  1 890 1.47168527E-08
  1 891 1.47376098E-08
  1 892 1.47391584E-08
  1 893 1.47291402E-08
  1 894 1.47310117E-08
  1 895 1.47435618E-08
  1 896 1.47243750E-08
  1 897 1.47514624E-08
  1 898 1.47278668E-08
  1 899 1.47403751E-08
  1 900 1.47024284E-08
  1 901 1.46317946E-08
  1 902 1.46354584E-08
  1 903 1.46414472E-08
  1 904 1.45988271E-08
  1 905 1.46419357E-08
  1 906 1.46482819E-08
  1 907 1.44858828E-08
  1 908 1.46449761E-08
  1 909 1.46470539E-08
  1 910 1.46391317E-08
  1 911 1.43340529E-08
  1 912 1.43454556E-08
  1 913 1.43457681E-08
  1 914 1.42343294E-08
  1 915 1.43543638E-08
  1 916 1.43546740E-08
  1 917 1.43418467E-08
  1 918 1.43463872E-08
  1 919 1.43570548E-08
  1 920 1.43476811E-08
  1 921 1.46472679E-08
  1 922 1.46290271E-08
  1 923 1.44057296E-08
  1 924 1.43607269E-08
  1 925 1.44356815E-08
  1 926 1.44089320E-08
  1 927 1.47081172E-08
  1 928 1.44223779E-08
  1 929 1.47125753E-08
  1 930 1.44209594E-08
  1 931 1.47172992E-08
  1 932 1.44037545E-08
  1 933 1.43853757E-08
  1 934 1.43845221E-08
  1 935 1.43979511E-08
  1 936 1.42848010E-08
  1 937 1.43834209E-08
  1 938 1.43960871E-08
  1 939 1.43061495E-08
  1 940 1.42978453E-08
  1 941 1.43940109E-08
  1 942 1.43623194E-08
  1 943 1.47207124E-08
  1 944 1.46985982E-08
  1 945 1.46741981E-08
  1 946 1.43725125E-08
  1 947 1.47400678E-08
  1 948 1.46428169E-08
  1 949 1.72003882E-08
  1 950 1.41776831E-08
  1 951 1.42813958E-08
  1 952 1.20178486E-08
  1 953 1.42309984E-08
  1 954 1.01800937E-08
  1 955 1.42052131E-08
  1 956 1.42174997E-08
  1 957 1.42081394E-08
  1 958 1.38102849E-08
  1 959 1.42586138E-08
  1 960 1.38676856E-08
  1 961 1.05166470E-08
  1 962 1.42076849E-08
  1 963 1.42077457E-08
  1 964 1.39278378E-08
  1 965 1.41853260E-08
  1 966 1.41921575E-08
  1 967 1.40415767E-08
  1 968 1.34231106E-08
  1 969 1.42652341E-08
  1 970 1.80694541E-09
  1 971 1.42553844E-08
  1 972 9.92626043E-09
  1 973 1.42301514E-08
  1 974 1.42275150E-08
  1 975 1.42582047E-08
  1 976 1.42340554E-08
  1 977 1.42447954E-08
  1 978 1.42443648E-08
  1 979 1.42790703E-08
  1 980 1.41998003E-08
  1 981 1.42426647E-08
  1 982 1.42309764E-08
  1 983 1.42025981E-08
  1 984 1.42180511E-08
  1 985 1.42120410E-08
  1 986 1.40821966E-08
  1 987 1.42037853E-08
  1 988 1.41993922E-08
  1 989 1.42218190E-08
  1 990 1.40216024E-08
  1 991 1.42221439E-08
  1 992 1.40435580E-08
  1 993 1.40932086E-08
  1 994 1.41531584E-08
  1 995 1.42250214E-08
  1 996 1.42119079E-08
  1 997 1.39117444E-08
  1 998 1.38704662E-08
  1 999 1.39335716E-08
  1 1000 1.38926085E-08
  1 1001 1.39276677E-08
  1 1002 1.39464864E-08
  1 1003 1.39556710E-08
  1 1004 1.39240090E-08
  1 1005 1.39504688E-08
  1 1006 1.38960359E-08
  1 1007 1.38012189E-08
  1 1008 1.38068335E-08
  1 1009 1.38258964E-08
  1 1010 1.39082765E-08
  1 1011 1.38178105E-08
  1 1012 1.38487091E-08
  1 1013 1.38312584E-08
  1 1014 1.38147128E-08
  1 1015 1.38585848E-08
  1 1016 1.37756861E-08
  1 1017 1.38855945E-08
  1 1018 1.41480376E-08
  1 1019 1.39600536E-08
  1 1020 1.39938288E-08
  1 1021 1.39803445E-08
  1 1022 1.39441962E-08
  1 1023 1.39618913E-08
  1 1024 1.39705570E-08
  1 1025 1.39557605E-08
  1 1026 1.39775276E-08
  1 1027 1.39822290E-08
  1 1028 1.39489004E-08
  1 1029 1.38064281E-08
  1 1030 1.38656239E-08
  1 1031 1.39398720E-08
  1 1032 1.37210615E-08
  1 1033 1.38341230E-08
  1 1034 1.38789332E-08
  1 1035 1.38646855E-08
  1 1036 1.39412728E-08
  1 1037 1.39179698E-08
  1 1038 1.37893588E-08
  1 1039 1.40120101E-08
  1 1040 1.39398346E-08
  1 1041 1.39647437E-08
  1 1042 1.38053448E-08
  1 1043 1.40899113E-08
  1 1044 1.37676135E-08
  1 1045 1.42416105E-08
  1 1046 1.42026374E-08
  1 1047 1.42459884E-08
  1 1048 1.42273255E-08
  1 1049 1.42127624E-08
  1 1050 1.42442704E-08
  1 1051 1.42089387E-08
  1 1052 1.42024438E-08
  1 1053 1.42207410E-08
  1 1054 1.42060117E-08
  1 1055 1.41808980E-08
  1 1056 1.42044603E-08
  1 1057 1.41689664E-08
  1 1058 1.41554688E-08
  1 1059 1.41958822E-08
  1 1060 1.41865293E-08
  1 1061 1.41931469E-08
  1 1062 1.41853712E-08
  1 1063 1.41988097E-08
  1 1064 1.41693001E-08
  1 1065 1.42599414E-08
  1 1066 1.42753730E-08
  1 1067 1.42172772E-08
  1 1068 1.42046513E-08
  1 1069 1.42705270E-08
  1 1070 1.42249473E-08
  1 1071 1.42755729E-08
  1 1072 1.42726796E-08
  1 1073 1.42506338E-08
  1 1074 1.42816885E-08
  1 1075 1.42678555E-08
  1 1076 1.42693397E-08
  1 1077 1.41972334E-08
  1 1078 1.41929020E-08
  1 1079 1.41823784E-08
  1 1080 1.42144199E-08
  1 1081 1.41935301E-08
  1 1082 1.42444055E-08
  1 1083 1.42293653E-08
  1 1084 1.42086093E-08
  1 1085 1.42090008E-08
  1 1086 1.41960102E-08
  1 1087 1.42913603E-08
  1 1088 1.42402057E-08
  1 1089 1.42815884E-08
  1 1090 1.41778559E-08
  1 1091 1.38861766E-08
  1 1092 1.39192494E-08
  1 1093 1.39468679E-08
  1 1094 1.38913925E-08
  1 1095 1.38907234E-08
  1 1096 1.39526771E-08
  1 1097 1.38471735E-08
  1 1098 1.39192606E-08
  1 1099 1.38925581E-08
  1 1100 1.38886915E-08
  1 1101 1.38485805E-08
  1 1102 1.38587437E-08
  1 1103 1.38688046E-08
  1 1104 1.38398289E-08
  1 1105 1.38475534E-08
  1 1106 1.38273737E-08
  1 1107 1.38225816E-08
  1 1108 1.38754128E-08
  1 1109 1.38761188E-08
  1 1110 1.38251795E-08
  1 1111 1.38938787E-08
  1 1112 1.38689264E-08
  1 1113 1.39818135E-08
  1 1114 1.42648701E-08
  1 1115 1.41636917E-08
  1 1116 1.40533958E-08
  1 1117 1.41498981E-08
  1 1118 1.41553221E-08
  1 1119 1.41813244E-08
  1 1120 1.39976894E-08
  1 1121 1.41605979E-08
  1 1122 1.41379932E-08
  1 1123 1.39012433E-08
  1 1124 1.39023990E-08
  1 1125 1.39057277E-08
  1 1126 1.38357163E-08
  1 1127 1.38246666E-08
  1 1128 1.40382231E-08
  1 1129 1.41745526E-08
  1 1130 1.39207209E-08
  1 1131 1.39152758E-08
  1 1132 1.38898084E-08
  1 1133 1.42177997E-08
  1 1134 1.39431694E-08
  1 1135 1.41482612E-08
  1 1136 1.38206279E-08
  1 1137 1.42312177E-08
  1 1138 1.41675599E-08
  1 1139 1.42517662E-08
  1 1140 1.38128254E-08
  1 1141 1.44082140E-08
  1 1142 1.46385704E-08
  1 1143 1.47706895E-08
  1 1144 1.47572977E-08
  1 1145 1.47852397E-08
  1 1146 1.51232230E-08
  1 1147 1.48722477E-08
  1 1148 1.47719200E-08
  1 1149 1.47639629E-08
  1 1150 1.47802164E-08
  1 1151 1.47523350E-08
  1 1152 1.47608486E-08
  1 1153 1.47616882E-08
  1 1154 1.47475238E-08
  1 1155 1.47671204E-08
  1 1156 1.47622580E-08
  1 1157 1.47680992E-08
  1 1158 1.47655865E-08
  1 1159 1.47809224E-08
  1 1160 1.47880731E-08
  1 1161 1.47917628E-08
  1 1162 1.47575535E-08
  1 1163 1.49023301E-08
  1 1164 1.48892349E-08
  1 1165 1.49645637E-08
  1 1166 1.49541597E-08
  1 1167 1.49624421E-08
  1 1168 1.49664342E-08
  1 1169 1.49747352E-08
  1 1170 1.49509873E-08
  1 1171 1.49447613E-08
  1 1172 1.49068981E-08
  1 1173 1.48746466E-08
  1 1174 1.48620827E-08
  1 1175 1.48855683E-08
  1 1176 1.48669391E-08
  1 1177 1.48929999E-08
  1 1178 1.49221110E-08
  1 1179 1.49022377E-08
  1 1180 1.48950070E-08
  1 1181 1.48927904E-08
  1 1182 1.48834388E-08
  1 1183 1.49476909E-08
  1 1184 1.48511010E-08
  1 1185 1.71481151E-08
  1 1186 1.48817468E-08
  1 1187 1.48372714E-08
  1 1188 1.47972508E-08
  1 1189 1.48317332E-08
  1 1190 1.48295523E-08
  1 1191 1.48491561E-08
  1 1192 1.48185685E-08
  1 1193 1.48553685E-08
  1 1194 1.48436960E-08
  1 1195 1.48374807E-08
  1 1196 1.48403422E-08
  1 1197 1.47404366E-08
  1 1198 1.47357524E-08
  1 1199 1.48191889E-08
  1 1200 1.47299185E-08
  1 1201 1.48302057E-08
  1 1202 1.48205394E-08
  1 1203 1.48279373E-08
  1 1204 1.48215964E-08
  1 1205 1.48343226E-08
  1 1206 1.48145183E-08
  1 1207 1.48521628E-08
  1 1208 1.47244641E-08
  1 1209 1.48746687E-08
  1 1210 1.48726426E-08
  1 1211 1.48858817E-08
  1 1212 1.48757058E-08
  1 1213 1.48932107E-08
  1 1214 1.48901200E-08
  1 1215 1.49103484E-08
  1 1216 1.48905472E-08
  1 1217 1.48993182E-08
  1 1218 1.48911413E-08
  1 1219 1.48653388E-08
  1 1220 1.48722178E-08
  1 1221 1.48626631E-08
  1 1222 1.48437276E-08
  1 1223 1.48772141E-08
  1 1224 1.48831032E-08
  1 1225 1.47133258E-08
  1 1226 1.46896085E-08
  1 1227 1.48828240E-08
  1 1228 1.48568478E-08
  1 1229 1.49061401E-08
  1 1230 1.48655523E-08
  1 1231 1.48857152E-08
  1 1232 1.48700103E-08
  1 1233 1.49862333E-08
  1 1234 1.47560184E-08
  1 1235 1.51249245E-08
  1 1236 1.51540194E-08
  1 1237 1.51790731E-08
  1 1238 1.51381101E-08
  1 1239 1.52200172E-08
  1 1240 1.52055178E-08
  1 1241 1.52532582E-08
  1 1242 1.52694567E-08
  1 1243 1.52331113E-08
  1 1244 1.51353789E-08
  1 1245 1.51161895E-08
  1 1246 1.50388134E-08
  1 1247 1.51397413E-08
  1 1248 1.51342907E-08
  1 1249 1.51643545E-08
  1 1250 1.51439200E-08
  1 1251 1.52941330E-08
  1 1252 1.51556781E-08
  1 1253 1.52863295E-08
  1 1254 1.52485868E-08
  1 1255 1.52905469E-08
  1 1256 1.50043154E-08
  1 1257 1.53310334E-08
  1 1258 1.52569089E-08
  1 1259 1.53654217E-08
  1 1260 1.53232754E-08
  1 1261 1.54991336E-08
  1 1262 1.53931663E-08
  1 1263 1.60633044E-08
  1 1264 1.54382622E-08
  1 1265 1.55285649E-08
  1 1266 1.60366713E-08
  1 1267 1.53814680E-08
  1 1268 1.53371620E-08
  1 1269 1.54616225E-08
  1 1270 1.54661978E-08
  1 1271 1.55712902E-08
  1 1272 1.60546634E-08
  1 1273 1.60649261E-08
  1 1274 1.55325129E-08
  1 1275 1.54482129E-08
  1 1276 1.53198204E-08
  1 1277 1.60186879E-08
  1 1278 1.53068366E-08
  1 1279 1.53011463E-08
  1 1280 1.61375396E-08
  1 1281 1.50178799E-08
  1 1282 1.49905122E-08
  1 1283 1.49967965E-08
  1 1284 1.50117137E-08
  1 1285 1.50276061E-08
  1 1286 1.50196328E-08
  1 1287 1.50240291E-08