# File generated by Flopy version 3.9.1 on 01/31/2026 at 15:00:15.
BEGIN options
  FIXED_CELL
  PRINT_FLOWS
  SAVE_FLOWS
END options

BEGIN dimensions
  MAXBOUND  21123
END dimensions

BEGIN period  1
  1 8.62980482E-09
  2 8.59502623E-09
  3 8.61691299E-09
  4 8.64863974E-09
  5 8.55376578E-09
  6 8.55245520E-09
  7 8.51533808E-09
  8 8.48527493E-09
  9 8.44581297E-09
  10 8.58713726E-09
  11 8.60638793E-09
  12 8.65201734E-09
  13 8.72232679E-09
  14 8.50695257E-09
  15 8.52757592E-09
  16 8.43692937E-09
  17 8.45893092E-09
  18 8.57635058E-09
  19 8.65137080E-09
  20 8.51085688E-09
  21 8.59058039E-09
  22 8.81483187E-09
  23 8.92646867E-09
  24 8.74986106E-09
  25 8.86841690E-09
  26 8.69501691E-09
  27 8.82040359E-09
  28 9.00327167E-09
  29 9.15055379E-09
  30 8.96260538E-09
  31 9.11740634E-09
  32 9.36835061E-09
  33 9.33983459E-09
  34 9.51854036E-09
  35 9.69902026E-09
  36 9.87836882E-09
  37 1.00542296E-08
  38 1.02247649E-08
  39 1.03886019E-08
  40 1.05447676E-08
  41 1.06926204E-08
  42 1.08317853E-08
  43 1.09620946E-08
  44 1.10636112E-08
  45 1.11760798E-08
  46 1.12800106E-08
  47 1.13756349E-08
  48 1.14632167E-08
  49 9.38702803E-09
  50 9.60519148E-09
  51 9.41518592E-09
  52 9.01751032E-09
  53 8.87088662E-09
  54 8.72733323E-09
  55 8.85250745E-09
  56 8.70245297E-09
  57 9.20131894E-09
  58 9.02064626E-09
  59 9.22546285E-09
  60 9.04025416E-09
  61 8.84976191E-09
  62 8.69387979E-09
  63 8.86450359E-09
  64 8.70369148E-09
  65 8.60323981E-09
  66 8.50304451E-09
  67 8.57238893E-09
  68 8.46713875E-09
  69 8.43059980E-09
  70 8.38883082E-09
  71 8.39091496E-09
  72 8.34693048E-09
  73 8.55839529E-09
  74 8.44850941E-09
  75 8.56353990E-09
  76 8.44960724E-09
  77 8.36879267E-09
  78 8.32274732E-09
  79 8.36680871E-09
  80 8.31892873E-09
  81 8.37945473E-09
  82 8.40281009E-09
  83 8.33707650E-09
  84 8.36172533E-09
  85 8.45782782E-09
  86 8.54214901E-09
  87 8.41969648E-09
  88 8.50839246E-09
  89 8.31244110E-09
  90 8.33828145E-09
  91 8.30820895E-09
  92 8.33509269E-09
  93 8.39897635E-09
  94 8.49168904E-09
  95 8.39817976E-09
  96 8.49440108E-09
  97 8.65236660E-09
  98 8.78434709E-09
  99 8.62407654E-09
  100 8.76224005E-09
  101 8.93357926E-09
  102 9.14214238E-09
  103 8.91799628E-09
  104 9.13156217E-09
  105 8.61235441E-09
  106 8.75609401E-09
  107 8.61937473E-09
  108 8.76786995E-09
  109 8.95201030E-09
  110 9.13623277E-09
  111 8.96874108E-09
  112 9.15768302E-09
  113 9.32276908E-09
  114 9.50817444E-09
  115 9.31860355E-09
  116 9.50991964E-09
  117 9.69475121E-09
  118 9.87950042E-09
  119 9.70176478E-09
  120 9.89106781E-09
  121 9.32873905E-09
  122 9.52496673E-09
  123 9.35447444E-09
  124 9.55440003E-09
  125 9.72105809E-09
  126 9.91389424E-09
  127 9.75352134E-09
  128 9.94869868E-09
  129 1.00600275E-08
  130 1.02344990E-08
  131 1.00754156E-08
  132 1.02529958E-08
  133 1.04015767E-08
  134 1.05603413E-08
  135 1.04225179E-08
  136 1.05831263E-08
  137 1.01010643E-08
  138 1.02807940E-08
  139 1.01375452E-08
  140 1.03183402E-08
  141 1.04518528E-08
  142 1.06134568E-08
  143 1.04899241E-08
  144 1.06515904E-08
  145 1.07102151E-08
  146 1.08508909E-08
  147 1.07343139E-08
  148 1.08758447E-08
  149 1.09822676E-08
  150 1.10848382E-08
  151 1.09887420E-08
  152 1.11107334E-08
  153 1.07651740E-08
  154 1.09068416E-08
  155 1.08029845E-08
  156 1.09440159E-08
  157 1.10198674E-08
  158 1.11414012E-08
  159 1.10564452E-08
  160 1.11769001E-08
  161 1.11976599E-08
  162 1.13016693E-08
  163 1.12234114E-08
  164 1.13270506E-08
  165 1.13971407E-08
  166 1.14843744E-08
  167 1.14219657E-08
  168 1.15084899E-08
  169 1.12534066E-08
  170 1.13562023E-08
  171 1.12876786E-08
  172 1.13891380E-08
  173 1.14501386E-08
  174 1.15355777E-08
  175 1.14816593E-08
  176 1.15656278E-08
  177 1.15636812E-08
  178 1.16353709E-08
  179 1.15869604E-08
  180 1.16577078E-08
  181 1.17210491E-08
  182 1.17772836E-08
  183 1.16128789E-08
  184 1.16823892E-08
  185 1.16414201E-08
  186 1.17093948E-08
  187 1.17444372E-08
  188 1.17993293E-08
  189 1.17698876E-08
  190 1.18232082E-08
  191 1.18473492E-08
  192 1.18887578E-08
  193 1.18696401E-08
  194 1.19094413E-08
  195 1.19428469E-08
  196 1.19700728E-08
  197 1.17830807E-08
  198 1.17768437E-08
  199 1.17085386E-08
  200 1.17675723E-08
  201 1.17250098E-08
  202 1.16895156E-08
  203 1.16660609E-08
  204 1.17085178E-08
  205 1.16876888E-08
  206 1.16377119E-08
  207 1.16620588E-08
  208 1.16311559E-08
  209 1.15945001E-08
  210 1.15516027E-08
  211 1.08300844E-08
  212 1.05533504E-08
  213 1.03983402E-08
  214 9.83876946E-09
  215 1.00795101E-08
  216 9.89851285E-09
  217 9.65058806E-09
  218 9.45858079E-09
  219 9.71048585E-09
  220 9.51803204E-09
  221 1.01503090E-08
  222 9.97153772E-09
  223 1.02328421E-08
  224 1.00578935E-08
  225 9.78529394E-09
  226 9.59410506E-09
  227 9.87515835E-09
  228 9.68706625E-09
  229 9.26621666E-09
  230 9.07780630E-09
  231 9.32460484E-09
  232 9.13455061E-09
  233 8.89844356E-09
  234 8.73383244E-09
  235 8.95306307E-09
  236 8.78601576E-09
  237 9.40137351E-09
  238 9.21143452E-09
  239 9.49693356E-09
  240 9.30903506E-09
  241 9.02952434E-09
  242 8.86162099E-09
  243 9.12858644E-09
  244 8.96159574E-09
  245 8.58998165E-09
  246 8.47277248E-09
  247 8.63964977E-09
  248 8.52011948E-09
  249 8.38743829E-09
  250 8.33802801E-09
  251 8.43293508E-09
  252 8.38238035E-09
  253 8.71412978E-09
  254 8.59341258E-09
  255 8.81455150E-09
  256 8.69394255E-09
  257 8.52130351E-09
  258 8.32694840E-09
  259 8.35467823E-09
  260 8.37101118E-09
  261 8.39934009E-09
  262 8.48562501E-09
  263 8.44239616E-09
  264 8.47102969E-09
  265 8.54261093E-09
  266 8.57121278E-09
  267 8.63179051E-09
  268 8.74367048E-09
  269 9.00497092E-09
  270 9.19727945E-09
  271 9.06206318E-09
  272 9.25615374E-09
  273 8.92301568E-09
  274 9.14105204E-09
  275 9.33513096E-09
  276 9.24256257E-09
  277 9.43466382E-09
  278 9.39694743E-09
  279 9.59914759E-09
  280 9.45707348E-09
  281 9.65993064E-09
  282 9.79989633E-09
  283 9.99606190E-09
  284 9.86073545E-09
  285 1.00563936E-08
  286 9.53548663E-09
  287 9.73721577E-09
  288 9.63248676E-09
  289 9.83117356E-09
  290 9.93636368E-09
  291 1.01299030E-08
  292 1.00268469E-08
  293 1.02165744E-08
  294 1.01853028E-08
  295 1.03659665E-08
  296 1.02446294E-08
  297 1.04238708E-08
  298 1.05369726E-08
  299 1.06976950E-08
  300 1.05931215E-08
  301 1.07518366E-08
  302 1.03156422E-08
  303 1.04920990E-08
  304 1.03982650E-08
  305 1.05705327E-08
  306 1.06583639E-08
  307 1.08139700E-08
  308 1.07325534E-08
  309 1.08839326E-08
  310 1.08478560E-08
  311 1.09696818E-08
  312 1.08998114E-08
  313 1.10195628E-08
  314 1.10985090E-08
  315 1.12172383E-08
  316 1.11460288E-08
  317 1.12623705E-08
  318 1.09418160E-08
  319 1.10755631E-08
  320 1.10077885E-08
  321 1.11375137E-08
  322 1.11989076E-08
  323 1.13121950E-08
  324 1.12569797E-08
  325 1.13665528E-08
  326 1.13262175E-08
  327 1.14258354E-08
  328 1.13689680E-08
  329 1.14662337E-08
  330 1.15164970E-08
  331 1.15986047E-08
  332 1.15545889E-08
  333 1.16344457E-08
  334 1.14158278E-08
  335 1.15102331E-08
  336 1.14666472E-08
  337 1.15576944E-08
  338 1.15958396E-08
  339 1.16730618E-08
  340 1.16401213E-08
  341 1.17143368E-08
  342 1.16725462E-08
  343 1.17386866E-08
  344 1.17061970E-08
  345 1.17702082E-08
  346 1.17973638E-08
  347 1.18488865E-08
  348 1.18268144E-08
  349 1.18763184E-08
  350 1.17422903E-08
  351 1.18038851E-08
  352 1.17807220E-08
  353 1.18396251E-08
  354 1.18581730E-08
  355 1.19054464E-08
  356 1.18913591E-08
  357 1.19362013E-08
  358 1.18935341E-08
  359 1.19315581E-08
  360 1.19189917E-08
  361 1.19550760E-08
  362 1.19631856E-08
  363 1.19886223E-08
  364 1.19847866E-08
  365 1.20083166E-08
  366 1.19459645E-08
  367 1.19799554E-08
  368 1.19743945E-08
  369 1.20061499E-08
  370 1.20076199E-08
  371 1.20291354E-08
  372 1.20316504E-08
  373 1.20510551E-08
  374 1.20080582E-08
  375 1.20216727E-08
  376 1.20258422E-08
  377 1.20375287E-08
  378 1.20435373E-08
  379 1.20446620E-08
  380 1.20543482E-08
  381 1.20645055E-08
  382 1.20721314E-08
  383 1.20583387E-08
  384 1.20567823E-08
  385 1.20740585E-08
  386 1.20704177E-08
  387 1.20498411E-08
  388 1.20613534E-08
  389 1.20470352E-08
  390 1.20276679E-08
  391 1.17040704E-08
  392 1.17161297E-08
  393 1.17213501E-08
  394 1.17593226E-08
  395 1.17658686E-08
  396 1.17379967E-08
  397 1.17444636E-08
  398 1.17274176E-08
  399 1.17343805E-08
  400 1.17515311E-08
  401 1.17591024E-08
  402 1.17422164E-08
  403 1.17508310E-08
  404 1.17817103E-08
  405 1.17725072E-08
  406 1.17790234E-08
  407 1.17861619E-08
  408 1.17897061E-08
  409 1.17851498E-08
  410 1.17905719E-08
  411 1.17670164E-08
  412 1.17750512E-08
  413 1.17600601E-08
  414 1.17696736E-08
  415 1.17829290E-08
  416 1.17903220E-08
  417 1.17793812E-08
  418 1.17888401E-08
  419 1.17920002E-08
  420 1.17926679E-08
  421 1.17949340E-08
  422 1.17978460E-08
  423 1.17913043E-08
  424 1.17874816E-08
  425 1.17988896E-08
  426 1.17976251E-08
  427 1.17968597E-08
  428 1.18021368E-08
  429 1.17976631E-08
  430 1.18054276E-08
  431 1.18057204E-08
  432 1.18071578E-08
  433 1.18116844E-08
  434 1.18159667E-08
  435 1.17807539E-08
  436 1.17414415E-08
  437 1.17935967E-08
  438 1.17577127E-08
  439 1.17276633E-08
  440 1.17096581E-08
  441 1.17468274E-08
  442 1.17318396E-08
  443 1.18059825E-08
  444 1.17737022E-08
  445 1.18177969E-08
  446 1.17892913E-08
  447 1.17707936E-08
  448 1.16869632E-08
  449 1.16591108E-08
  450 1.17122895E-08
  451 1.16877164E-08
  452 1.16256281E-08
  453 1.15860361E-08
  454 1.16576581E-08
  455 1.16216502E-08
  456 1.17378984E-08
  457 1.17168235E-08
  458 1.17636501E-08
  459 1.17462807E-08
  460 1.16904292E-08
  461 1.16582694E-08
  462 1.17237755E-08
  463 1.16957108E-08
  464 1.15398489E-08
  465 1.14865724E-08
  466 1.15792239E-08
  467 1.15299051E-08
  468 1.14732131E-08
  469 1.14086612E-08
  470 1.16198979E-08
  471 1.15748665E-08
  472 1.16616677E-08
  473 1.16212295E-08
  474 1.15227231E-08
  475 1.14630117E-08
  476 1.15739795E-08
  477 1.15194997E-08
  478 1.11924478E-08
  479 1.13357588E-08
  480 1.12540181E-08
  481 1.11249962E-08
  482 1.10190655E-08
  483 1.11919740E-08
  484 1.10916549E-08
  485 1.13952730E-08
  486 1.13190499E-08
  487 1.14573713E-08
  488 1.13871777E-08
  489 1.12630521E-08
  490 1.11690748E-08
  491 1.13378119E-08
  492 1.12508512E-08
  493 1.09024847E-08
  494 1.07749624E-08
  495 1.09810075E-08
  496 1.08597333E-08
  497 1.06363771E-08
  498 1.04868559E-08
  499 1.07276885E-08
  500 1.05849597E-08
  501 1.10651998E-08
  502 1.09511360E-08
  503 1.11545256E-08
  504 1.10485660E-08
  505 1.08267321E-08
  506 1.06920476E-08
  507 1.09328281E-08
  508 1.08073584E-08
  509 1.03268752E-08
  510 1.01573829E-08
  511 1.04319612E-08
  512 1.02695543E-08
  513 9.97993674E-09
  514 9.79684885E-09
  515 1.00991856E-08
  516 9.92303315E-09
  517 1.05474452E-08
  518 1.03937054E-08
  519 1.06724796E-08
  520 1.05288990E-08
  521 1.02229408E-08
  522 9.61131562E-09
  523 9.42750119E-09
  524 9.74414150E-09
  525 9.56651478E-09
  526 9.23708474E-09
  527 9.89353794E-09
  528 9.56157041E-09
  529 9.40909469E-09
  530 9.74853555E-09
  531 9.60489844E-09
  532 8.95247411E-09
  533 8.78080115E-09
  534 9.27400999E-09
  535 9.16258733E-09
  536 9.47744748E-09
  537 9.37216191E-09
  538 9.08059345E-09
  539 9.03261175E-09
  540 9.29456248E-09
  541 9.24905292E-09
  542 8.75778912E-09
  543 8.88796411E-09
  544 9.02143162E-09
  545 9.04765156E-09
  546 9.23832407E-09
  547 9.26296423E-09
  548 9.29437271E-09
  549 9.18117725E-09
  550 9.52889246E-09
  551 9.36873517E-09
  552 9.51712858E-09
  553 9.57488591E-09
  554 9.71461092E-09
  555 9.68107604E-09
  556 9.85454363E-09
  557 9.86885418E-09
  558 1.00319108E-08
  559 9.90797067E-09
  560 1.01319687E-08
  561 1.03161514E-08
  562 1.02512190E-08
  563 1.04281295E-08
  564 1.02000396E-08
  565 1.03837949E-08
  566 1.05517596E-08
  567 1.05286159E-08
  568 1.06860622E-08
  569 1.04922179E-08
  570 1.06588814E-08
  571 1.05970128E-08
  572 1.07566814E-08
  573 1.09327205E-08
  574 1.07119584E-08
  575 1.08633009E-08
  576 1.08361735E-08
  577 1.09779520E-08
  578 1.11065355E-08
  579 1.10803091E-08
  580 1.12051625E-08
  581 1.11590119E-08
  582 1.12781764E-08
  583 1.13200106E-08
  584 1.14252282E-08
  585 1.13876993E-08
  586 1.14879507E-08
  587 1.13433670E-08
  588 1.15440770E-08
  589 1.15212295E-08
  590 1.16084395E-08
  591 1.15793329E-08
  592 1.16622538E-08
  593 1.16872744E-08
  594 1.17581286E-08
  595 1.17371089E-08
  596 1.18042701E-08
  597 1.17112741E-08
  598 1.17894064E-08
  599 1.18525712E-08
  600 1.18439232E-08
  601 1.19028208E-08
  602 1.18213665E-08
  603 1.18773184E-08
  604 1.18640781E-08
  605 1.19168388E-08
  606 1.19262779E-08
  607 1.19685026E-08
  608 1.19628215E-08
  609 1.20022594E-08
  610 1.19086920E-08
  611 1.19580446E-08
  612 1.19550264E-08
  613 1.20007802E-08
  614 1.20008691E-08
  615 1.20373704E-08
  616 1.20402888E-08
  617 1.20737250E-08
  618 1.20042152E-08
  619 1.20336062E-08
  620 1.20353514E-08
  621 1.20622643E-08
  622 1.20568378E-08
  623 1.20740484E-08
  624 1.20831368E-08
  625 1.20980843E-08
  626 1.20677199E-08
  627 1.20920578E-08
  628 1.21012296E-08
  629 1.21229140E-08
  630 1.21104971E-08
  631 1.21231281E-08
  632 1.21388633E-08
  633 1.21491408E-08
  634 1.20853586E-08
  635 1.20908772E-08
  636 1.21072044E-08
  637 1.21105834E-08
  638 1.20907097E-08
  639 1.20849666E-08
  640 1.21083046E-08
  641 1.21004570E-08
  642 1.21300235E-08
  643 1.21312459E-08
  644 1.21537933E-08
  645 1.21528578E-08
  646 1.21268547E-08
  647 1.21169162E-08
  648 1.21463694E-08
  649 1.21343705E-08
  650 1.20737736E-08
  651 1.20572823E-08
  652 1.20871456E-08
  653 1.20685029E-08
  654 1.20356823E-08
  655 1.20092128E-08
  656 1.20447014E-08
  657 1.20159665E-08
  658 1.21015136E-08
  659 1.20807591E-08
  660 1.21169214E-08
  661 1.20941129E-08
  662 1.20548067E-08
  663 1.20238662E-08
  664 1.20660795E-08
  665 1.20330143E-08
  666 1.19825893E-08
  667 1.19449398E-08
  668 1.19882171E-08
  669 1.19482223E-08
  670 1.19951836E-08
  671 1.19529416E-08
  672 1.19043397E-08
  673 1.18571316E-08
  674 1.19067435E-08
  675 1.18571555E-08
  676 1.18048608E-08
  677 1.17518695E-08
  678 1.16969020E-08
  679 1.12841092E-08
  680 1.13067342E-08
  681 1.12651941E-08
  682 1.12433303E-08
  683 1.12725260E-08
  684 1.12908546E-08
  685 1.16408630E-08
  686 1.12978115E-08
  687 1.16385268E-08
  688 1.16545842E-08
  689 1.16631091E-08
  690 1.16805986E-08
  691 1.16692874E-08
  692 1.16735713E-08
  693 1.16510421E-08
  694 1.16583008E-08
  695 1.16474255E-08
  696 1.16532516E-08
  697 1.16631087E-08
  698 1.16659592E-08
  699 1.16565138E-08
  700 1.16577494E-08
  701 1.16847281E-08
  702 1.16878699E-08
  703 1.16764249E-08
  704 1.16782753E-08
  705 1.16907569E-08
  706 1.16934574E-08
  707 1.16799934E-08
  708 1.16816427E-08
  709 1.16673614E-08
  710 1.16678302E-08
  711 1.16575155E-08
  712 1.16563781E-08
  713 1.16681282E-08
  714 1.16685642E-08
  715 1.16551198E-08
  716 1.16541710E-08
  717 1.16963354E-08
  718 1.16997132E-08
  719 1.16836310E-08
  720 1.16863219E-08
  721 1.17038613E-08
  722 1.17089883E-08
  723 1.16900227E-08
  724 1.16949737E-08
  725 1.16695135E-08
  726 1.16713851E-08
  727 1.16539232E-08
  728 1.16548350E-08
  729 1.16745267E-08
  730 1.16792133E-08
  731 1.16572990E-08
  732 1.16616278E-08
  733 1.17152339E-08
  734 1.17226626E-08
  735 1.17013390E-08
  736 1.17092006E-08
  737 1.17312610E-08
  738 1.17409368E-08
  739 1.17185542E-08
  740 1.17293094E-08
  741 1.16810468E-08
  742 1.17019688E-08
  743 1.17515216E-08
  744 1.17627754E-08
  745 1.17412921E-08
  746 1.17542505E-08
  747 1.17777061E-08
  748 1.17302273E-08
  749 1.17636606E-08
  750 1.18025156E-08
  751 1.18234291E-08
  752 1.17989744E-08
  753 1.18321868E-08
  754 1.18365432E-08
  755 1.18112385E-08
  756 1.18590831E-08
  757 1.18499628E-08
  758 1.17970999E-08
  759 1.17644336E-08
  760 1.18520247E-08
  761 1.18372069E-08
  762 1.17101657E-08
  763 1.16267132E-08
  764 1.15778191E-08
  765 1.16806466E-08
  766 1.16376502E-08
  767 1.18029477E-08
  768 1.17470835E-08
  769 1.15253804E-08
  770 1.14192080E-08
  771 1.16677363E-08
  772 1.15933000E-08
  773 1.12517232E-08
  774 1.10496644E-08
  775 1.14632865E-08
  776 1.13055113E-08
  777 1.08136711E-08
  778 1.05489869E-08
  779 1.11209495E-08
  780 1.09139881E-08
  781 1.02689428E-08
  782 9.95418308E-09
  783 9.82124796E-09
  784 1.01762386E-08
  785 1.00556865E-08
  786 1.06950822E-08
  787 1.04120811E-08
  788 1.03053565E-08
  789 1.06588485E-08
  790 1.05671190E-08
  791 9.70314488E-09
  792 9.60545365E-09
  793 9.94848403E-09
  794 9.85971215E-09
  795 9.53334416E-09
  796 9.49095390E-09
  797 9.79409219E-09
  798 9.75541407E-09
  799 1.03077107E-08
  800 1.01998806E-08
  801 9.48082134E-09
  802 9.50351337E-09
  803 9.74601294E-09
  804 9.76642339E-09
  805 9.60680020E-09
  806 9.69248240E-09
  807 9.87194631E-09
  808 9.94953812E-09
  809 1.02486176E-08
  810 1.01549721E-08
  811 1.02234874E-08
  812 1.04519016E-08
  813 1.05105524E-08
  814 9.80270840E-09
  815 9.93196430E-09
  816 1.00494258E-08
  817 1.01666024E-08
  818 1.00746050E-08
  819 1.02253457E-08
  820 1.02959498E-08
  821 1.04326849E-08
  822 1.03118166E-08
  823 1.04155476E-08
  824 1.05863513E-08
  825 1.06755522E-08
  826 1.07072075E-08
  827 1.05484645E-08
  828 1.06843512E-08
  829 1.08298518E-08
  830 1.08494590E-08
  831 1.09817697E-08
  832 1.09386909E-08
  833 1.11667919E-08
  834 1.11011805E-08
  835 1.12069930E-08
  836 1.13212600E-08
  837 1.13240538E-08
  838 1.14283970E-08
  839 1.13785665E-08
  840 1.15522453E-08
  841 1.15235785E-08
  842 1.16958152E-08
  843 1.17168063E-08
  844 1.18572794E-08
  845 1.18392778E-08
  846 1.19560803E-08
  847 1.19746460E-08
  848 1.20700472E-08
  849 1.20480787E-08
  850 1.21167001E-08
  851 1.21444625E-08
  852 1.21985667E-08
  853 1.21629007E-08
  854 1.21872010E-08
  855 1.22326802E-08
  856 1.22467800E-08
  857 1.21897809E-08
  858 1.21706432E-08
  859 1.22405693E-08
  860 1.22136192E-08
  861 1.21334100E-08
  862 1.21086240E-08
  863 1.21510168E-08
  864 1.21243481E-08
  865 1.20785994E-08
  866 1.20435116E-08
  867 1.20924417E-08
  868 1.20554544E-08
  869 1.21656078E-08
  870 1.21076747E-08
  871 1.20689312E-08
  872 1.21243571E-08
  873 1.20840203E-08
  874 1.20036124E-08
  875 1.19592458E-08
  876 1.20136223E-08
  877 1.19672781E-08
  878 1.19108626E-08
  879 1.18590308E-08
  880 1.19168661E-08
  881 1.18629543E-08
  882 1.20253239E-08
  883 1.19771728E-08
  884 1.20388162E-08
  885 1.19890509E-08
  886 1.19249139E-08
  887 1.18691130E-08
  888 1.19351511E-08
  889 1.18790844E-08
  890 1.18044430E-08
  891 1.17493072E-08
  892 1.18075455E-08
  893 1.17491344E-08
  894 1.16919797E-08
  895 1.16345915E-08
  896 1.16896179E-08
  897 1.16300611E-08
  898 1.18119868E-08
  899 1.17515991E-08
  900 1.18190644E-08
  901 1.17569314E-08
  902 1.16900958E-08
  903 1.16285685E-08
  904 1.16936731E-08
  905 1.16304034E-08
  906 1.15782549E-08
  907 1.15716138E-08
  908 1.15154739E-08
  909 1.14628423E-08
  910 1.14148729E-08
  911 1.15682005E-08
  912 1.15102282E-08
  913 1.15683339E-08
  914 1.15087346E-08
  915 1.14558939E-08
  916 1.14063929E-08
  917 1.14528842E-08
  918 1.14020147E-08
  919 1.13628187E-08
  920 1.13261119E-08
  921 1.13572537E-08
  922 1.13195709E-08
  923 1.12970181E-08
  924 1.12897328E-08
  925 1.12682715E-08
  926 1.12554689E-08
  927 1.12513580E-08
  928 1.12557394E-08
  929 1.12265505E-08
  930 1.11642764E-08
  931 1.11977653E-08
  932 1.12356776E-08
  933 1.12076342E-08
  934 1.12454058E-08
  935 1.12512719E-08
  936 1.12801814E-08
  937 1.12596567E-08
  938 1.12881702E-08
  939 1.13049812E-08
  940 1.16362963E-08
  941 1.13123670E-08
  942 1.16342035E-08
  943 1.12685040E-08
  944 1.12965052E-08
  945 1.12778361E-08
  946 1.13052029E-08
  947 1.16240375E-08
  948 1.16322893E-08
  949 1.16240644E-08
  950 1.16306061E-08
  951 1.16437529E-08
  952 1.16479734E-08
  953 1.16400516E-08
  954 1.16424892E-08
  955 1.16453132E-08
  956 1.16346687E-08
  957 1.16276255E-08
  958 1.16393734E-08
  959 1.16316362E-08
  960 1.16127936E-08
  961 1.15963254E-08
  962 1.16270582E-08
  963 1.16295788E-08
  964 1.15852127E-08
  965 1.15835104E-08
  966 1.16421643E-08
  967 1.16660216E-08
  968 1.15952486E-08
  969 1.16220158E-08
  970 1.17053506E-08
  971 1.17897097E-08
  972 1.18363006E-08
  973 1.17746419E-08
  974 1.18356673E-08
  975 1.19080650E-08
  976 1.19405631E-08
  977 1.19360807E-08
  978 1.18070778E-08
  979 1.17736372E-08
  980 1.19544941E-08
  981 1.19557122E-08
  982 1.16553345E-08
  983 1.15998013E-08
  984 1.17613434E-08
  985 1.17170421E-08
  986 1.15387905E-08
  987 1.14724636E-08
  988 1.16682951E-08
  989 1.16153106E-08
  990 1.19073699E-08
  991 1.18470267E-08
  992 1.14459424E-08
  993 1.13029658E-08
  994 1.17769732E-08
  995 1.16249162E-08
  996 1.15769610E-08
  997 1.18145318E-08
  998 1.17839817E-08
  999 1.11527413E-08
  1000 1.09135471E-08
  1001 1.08376792E-08
  1002 1.11731576E-08
  1003 1.11137086E-08
  1004 1.15285625E-08
  1005 1.14807411E-08
  1006 1.17535244E-08
  1007 1.17237804E-08
  1008 1.14347285E-08
  1009 1.13919531E-08
  1010 1.16954528E-08
  1011 1.16693213E-08
  1012 1.08885402E-08
  1013 1.08146937E-08
  1014 1.14870113E-08
  1015 1.12988180E-08
  1016 1.13670262E-08
  1017 1.16124245E-08
  1018 1.16879558E-08
  1019 1.08789949E-08
  1020 1.07585601E-08
  1021 1.08067731E-08
  1022 1.10707461E-08
  1023 1.11081660E-08
  1024 1.15243584E-08
  1025 1.13843832E-08
  1026 1.14108654E-08
  1027 1.16956459E-08
  1028 1.17112401E-08
  1029 1.08693381E-08
  1030 1.09432280E-08
  1031 1.11570659E-08
  1032 1.12151713E-08
  1033 1.11912509E-08
  1034 1.14459324E-08
  1035 1.14880768E-08
  1036 1.17325491E-08
  1037 1.17588309E-08
  1038 1.16838585E-08
  1039 1.13532633E-08
  1040 1.15157546E-08
  1041 1.17740644E-08
  1042 1.17531862E-08
  1043 1.18088375E-08
  1044 1.19367262E-08
  1045 1.19621345E-08
  1046 1.16543984E-08
  1047 1.17938561E-08
  1048 1.18486322E-08
  1049 1.19014331E-08
  1050 1.20017113E-08
  1051 1.20408961E-08
  1052 1.20376830E-08
  1053 1.20652669E-08
  1054 1.22174454E-08
  1055 1.23117971E-08
  1056 1.23437622E-08
  1057 1.23066079E-08
  1058 1.22063321E-08
  1059 1.21425353E-08
  1060 1.21007857E-08
  1061 1.21622409E-08
  1062 1.21192747E-08
  1063 1.22521066E-08
  1064 1.21730958E-08
  1065 1.20541821E-08
  1066 1.20030162E-08
  1067 1.20714857E-08
  1068 1.20191504E-08
  1069 1.19477033E-08
  1070 1.18904440E-08
  1071 1.19641803E-08
  1072 1.19044890E-08
  1073 1.20748872E-08
  1074 1.19819048E-08
  1075 1.19213108E-08
  1076 1.20021674E-08
  1077 1.19409643E-08
  1078 1.18289551E-08
  1079 1.17653347E-08
  1080 1.18418055E-08
  1081 1.17769794E-08
  1082 1.17005811E-08
  1083 1.16358250E-08
  1084 1.17110145E-08
  1085 1.16450528E-08
  1086 1.18577257E-08
  1087 1.17919951E-08
  1088 1.18767844E-08
  1089 1.18104653E-08
  1090 1.17251235E-08
  1091 1.16582579E-08
  1092 1.17430070E-08
  1093 1.16755551E-08
  1094 1.15723008E-08
  1095 1.15113061E-08
  1096 1.15803453E-08
  1097 1.15182100E-08
  1098 1.14541499E-08
  1099 1.14020955E-08
  1100 1.14599799E-08
  1101 1.14069429E-08
  1102 1.15926589E-08
  1103 1.15296579E-08
  1104 1.16093725E-08
  1105 1.15457959E-08
  1106 1.14706040E-08
  1107 1.14168026E-08
  1108 1.14861826E-08
  1109 1.14318480E-08
  1110 1.13562999E-08
  1111 1.13177578E-08
  1112 1.13602798E-08
  1113 1.13210060E-08
  1114 1.12872545E-08
  1115 1.12653329E-08
  1116 1.12899226E-08
  1117 1.12675818E-08
  1118 1.13694522E-08
  1119 1.13295838E-08
  1120 1.13840011E-08
  1121 1.13436832E-08
  1122 1.12980109E-08
  1123 1.12752938E-08
  1124 1.13117165E-08
  1125 1.12886675E-08
  1126 1.12522769E-08
  1127 1.12481134E-08
  1128 1.12542703E-08
  1129 1.12500102E-08
  1130 1.12526290E-08
  1131 1.12654018E-08
  1132 1.12545779E-08
  1133 1.12675357E-08
  1134 1.12617218E-08
  1135 1.12573151E-08
  1136 1.12748291E-08
  1137 1.12702214E-08
  1138 1.12618431E-08
  1139 1.12748572E-08
  1140 1.12746111E-08
  1141 1.12875441E-08
  1142 1.12858406E-08
  1143 1.13132290E-08
  1144 1.12882731E-08
  1145 1.13160529E-08
  1146 1.13467703E-08
  1147 1.13500564E-08
  1148 1.13894263E-08
  1149 1.12957336E-08
  1150 1.13237198E-08
  1151 1.13083892E-08
  1152 1.13363852E-08
  1153 1.13579815E-08
  1154 1.13976464E-08
  1155 1.13706888E-08
  1156 1.14104186E-08
  1157 1.14333031E-08
  1158 1.14808543E-08
  1159 1.14418407E-08
  1160 1.14897195E-08
  1161 1.14546924E-08
  1162 1.15026578E-08
  1163 1.15404891E-08
  1164 1.15934214E-08
  1165 1.15535146E-08
  1166 1.16065296E-08
  1167 1.16478632E-08
  1168 1.16610454E-08
  1169 1.17164836E-08
  1170 1.17723448E-08
  1171 1.18282042E-08
  1172 1.10804828E-08
  1173 1.09696170E-08
  1174 1.10287855E-08
  1175 1.10925601E-08
  1176 1.10416386E-08
  1177 1.11059655E-08
  1178 1.11254127E-08
  1179 1.11748807E-08
  1180 1.11367487E-08
  1181 1.11864051E-08
  1182 1.12182556E-08
  1183 1.12557683E-08
  1184 1.12296739E-08
  1185 1.12668026E-08
  1186 1.11491943E-08
  1187 1.11989074E-08
  1188 1.11628231E-08
  1189 1.12124512E-08
  1190 1.12419391E-08
  1191 1.12785528E-08
  1192 1.12551073E-08
  1193 1.12910700E-08
  1194 1.12876800E-08
  1195 1.13142852E-08
  1196 1.12980682E-08
  1197 1.13237810E-08
  1198 1.16245424E-08
  1199 1.16292196E-08
  1200 1.16255479E-08
  1201 1.16282109E-08
  1202 1.13090404E-08
  1203 1.16208271E-08
  1204 1.13206453E-08
  1205 1.16251579E-08
  1206 1.16271712E-08
  1207 1.16276789E-08
  1208 1.16295189E-08
  1209 1.16277422E-08
  1210 1.16254203E-08
  1211 1.16084704E-08
  1212 1.16229980E-08
  1213 1.16138625E-08
  1214 1.16205022E-08
  1215 1.16085690E-08
  1216 1.16010943E-08
  1217 1.15855987E-08
  1218 1.15928112E-08
  1219 1.15741934E-08
  1220 1.15831279E-08
  1221 1.15726595E-08
  1222 1.15616686E-08
  1223 1.15530947E-08
  1224 1.15395950E-08
  1225 1.15683547E-08
  1226 1.15503974E-08
  1227 1.15537654E-08
  1228 1.15326449E-08
  1229 1.15327936E-08
  1230 1.15166106E-08
  1231 1.15119902E-08
  1232 1.14929660E-08
  1233 1.15372647E-08
  1234 1.15303005E-08
  1235 1.15034657E-08
  1236 1.14933801E-08
  1237 1.14767015E-08
  1238 1.14649934E-08
  1239 1.14711737E-08
  1240 1.15506097E-08
  1241 1.15605007E-08
  1242 1.15215729E-08
  1243 1.15316311E-08
  1244 1.15749984E-08
  1245 1.15939895E-08
  1246 1.15468765E-08
  1247 1.15671836E-08
  1248 1.14797363E-08
  1249 1.15124984E-08
  1250 1.16185117E-08
  1251 1.16815681E-08
  1252 1.15683108E-08
  1253 1.16336353E-08
  1254 1.16729133E-08
  1255 1.16118269E-08
  1256 1.16544797E-08
  1257 1.17419719E-08
  1258 1.17778679E-08
  1259 1.17288214E-08
  1260 1.17684718E-08
  1261 1.18142054E-08
  1262 1.18502823E-08
  1263 1.18087759E-08
  1264 1.18489898E-08
  1265 1.17147299E-08
  1266 1.17582366E-08
  1267 1.16999874E-08
  1268 1.17474343E-08
  1269 1.18025997E-08
  1270 1.18470301E-08
  1271 1.17959278E-08
  1272 1.18446314E-08
  1273 1.19051573E-08
  1274 1.19503854E-08
  1275 1.19143868E-08
  1276 1.19942759E-08
  1277 1.20333123E-08
  1278 1.20051829E-08
  1279 1.20488823E-08
  1280 1.20064567E-08
  1281 1.20503411E-08
  1282 1.20535627E-08
  1283 1.21173404E-08
  1284 1.20813072E-08
  1285 1.20913326E-08
  1286 1.21605834E-08
  1287 1.21679471E-08
  1288 1.21846116E-08
  1289 1.22203308E-08
  1290 1.22432689E-08
  1291 1.20998838E-08
  1292 1.21353565E-08
  1293 1.21993375E-08
  1294 1.22124932E-08
  1295 1.22647301E-08
  1296 1.22851535E-08
  1297 1.23089409E-08
  1298 1.22408487E-08
  1299 1.21030821E-08
  1300 1.20915992E-08
  1301 1.24146958E-08
  1302 1.24640549E-08
  1303 1.19756338E-08
  1304 1.19636655E-08
  1305 1.21929816E-08
  1306 1.21982571E-08
  1307 1.20783561E-08
  1308 1.25211429E-08
  1309 1.25803324E-08
  1310 1.20755600E-08
  1311 1.20086448E-08
  1312 1.20028909E-08
  1313 1.23095476E-08
  1314 1.23086218E-08
  1315 1.26310645E-08
  1316 1.27419832E-08
  1317 1.19996237E-08
  1318 1.19989678E-08
  1319 1.23062126E-08
  1320 1.23023908E-08
  1321 1.21502674E-08
  1322 1.27394288E-08
  1323 1.27103270E-08
  1324 1.21529133E-08
  1325 1.21637848E-08
  1326 1.26639248E-08
  1327 1.26134151E-08
  1328 1.21843056E-08
  1329 1.21171884E-08
  1330 1.21272639E-08
  1331 1.22793493E-08
  1332 1.22883861E-08
  1333 1.25698696E-08
  1334 1.24496186E-08
  1335 1.24443332E-08
  1336 1.26128924E-08
  1337 1.25940788E-08
  1338 1.21523961E-08
  1339 1.21782490E-08
  1340 1.22995447E-08
  1341 1.23124922E-08
  1342 1.22763572E-08
  1343 1.24421270E-08
  1344 1.24427192E-08
  1345 1.25792324E-08
  1346 1.25681233E-08
  1347 1.25033698E-08
  1348 1.24260665E-08
  1349 1.24711602E-08
  1350 1.24959252E-08
  1351 1.24837105E-08
  1352 1.24198313E-08
  1353 1.22908972E-08
  1354 1.21227756E-08
  1355 1.20069596E-08
  1356 1.21776629E-08
  1357 1.20627462E-08
  1358 1.18990050E-08
  1359 1.18324229E-08
  1360 1.19243632E-08
  1361 1.18578473E-08
  1362 1.17647077E-08
  1363 1.16969974E-08
  1364 1.17902090E-08
  1365 1.17225723E-08
  1366 1.19354082E-08
  1367 1.18018746E-08
  1368 1.16305494E-08
  1369 1.15666978E-08
  1370 1.16561817E-08
  1371 1.15923604E-08
  1372 1.15067995E-08
  1373 1.14521717E-08
  1374 1.15324562E-08
  1375 1.14777800E-08
  1376 1.16707896E-08
  1377 1.15523288E-08
  1378 1.14040268E-08
  1379 1.13634105E-08
  1380 1.14295401E-08
  1381 1.13887808E-08
  1382 1.13311499E-08
  1383 1.13078159E-08
  1384 1.13563296E-08
  1385 1.13327603E-08
  1386 1.14565870E-08
  1387 1.13916550E-08
  1388 1.12937053E-08
  1389 1.12888407E-08
  1390 1.13183735E-08
  1391 1.13131971E-08
  1392 1.12929901E-08
  1393 1.13056996E-08
  1394 1.13170045E-08
  1395 1.13293477E-08
  1396 1.13487641E-08
  1397 1.13432246E-08
  1398 1.13847160E-08
  1399 1.13787688E-08
  1400 1.13465923E-08
  1401 1.13584304E-08
  1402 1.13816066E-08
  1403 1.13928094E-08
  1404 1.13263370E-08