# File generated by Flopy version 3.9.1 on 02/10/2026 at 00:17:08.
BEGIN options
END options

BEGIN timing
  TDIS6  voronoi_caseD.tdis
END timing

BEGIN models
  gwf6  voronoi_caseD.nam  voronoi_caseD
END models

BEGIN exchanges
END exchanges

BEGIN solutiongroup  1
  ims6  voronoi_caseD.ims  voronoi_caseD
END solutiongroup  1

