# File generated by Flopy version 3.9.1 on 02/10/2026 at 00:17:13.
BEGIN options
  FIXED_CELL
  PRINT_FLOWS
  SAVE_FLOWS
END options

BEGIN dimensions
  MAXBOUND  39992
END dimensions

BEGIN period  1
  1 1 7.18330062E-09
  1 2 7.18536345E-09
  1 3 7.22024349E-09
  1 4 7.34315702E-09
  1 5 7.53576882E-09
  1 6 7.63331613E-09
  1 7 7.75241012E-09
  1 8 7.84976416E-09
  1 9 7.93211787E-09
  1 10 7.97622782E-09
  1 11 7.89712282E-09
  1 12 7.77146520E-09
  1 13 7.53271346E-09
  1 14 7.45139847E-09
  1 15 7.44290589E-09
  1 16 7.44296236E-09
  1 17 7.44179326E-09
  1 18 7.44191630E-09
  1 19 7.44119550E-09
  1 20 7.44154083E-09
  1 21 7.44220518E-09
  1 22 7.44313733E-09
  1 23 7.44407089E-09
  1 24 7.44354316E-09
  1 25 7.44268816E-09
  1 26 7.44235479E-09
  1 27 7.44267260E-09
  1 28 7.44354291E-09
  1 29 7.44271500E-09
  1 30 7.44521585E-09
  1 31 7.50468265E-09
  1 32 7.79544649E-09
  1 33 7.92545389E-09
  1 34 7.98829997E-09
  1 35 9.69449001E-09
  1 36 9.63597566E-09
  1 37 9.82976912E-09
  1 38 9.81613986E-09
  1 39 9.80989720E-09
  1 40 9.81599736E-09
  1 41 9.81224543E-09
  1 42 9.81490469E-09
  1 43 9.89723932E-09
  1 44 9.90520383E-09
  1 45 9.88378506E-09
  1 46 9.88309126E-09
  1 47 9.90537646E-09
  1 48 9.92302650E-09
  1 49 9.92814323E-09
  1 50 9.81119532E-09
  1 51 9.86561039E-09
  1 52 9.89469082E-09
  1 53 9.91075644E-09
  1 54 9.91289607E-09
  1 55 9.91974904E-09
  1 56 9.90637923E-09
  1 57 9.89354864E-09
  1 58 9.89790885E-09
  1 59 9.88963527E-09
  1 60 9.90936373E-09
  1 61 9.78154372E-09
  1 62 9.78697886E-09
  1 63 9.73661257E-09
  1 64 9.68723878E-09
  1 65 9.67806553E-09
  1 66 9.67351776E-09
  1 67 9.66602020E-09
  1 68 9.64404667E-09
  1 69 9.64484177E-09
  1 70 9.64257914E-09
  1 71 9.63797160E-09
  1 72 9.63700419E-09
  1 73 9.63669203E-09
  1 74 9.62981299E-09
  1 75 9.62109625E-09
  1 76 9.59897801E-09
  1 77 9.51681486E-09
  1 78 9.51572341E-09
  1 79 9.53615299E-09
  1 80 9.53724066E-09
  1 81 9.53390444E-09
  1 82 9.53955929E-09
  1 83 9.53905418E-09
  1 84 9.54190650E-09
  1 85 9.50992715E-09
  1 86 9.51105472E-09
  1 87 9.54471872E-09
  1 88 9.55279118E-09
  1 89 9.55243013E-09
  1 90 9.55008455E-09
  1 91 9.55160688E-09
  1 92 9.55546152E-09
  1 93 9.55637128E-09
  1 94 9.56677041E-09
  1 95 9.56653541E-09
  1 96 9.57756002E-09
  1 97 9.54928612E-09
  1 98 9.56188162E-09
  1 99 9.56184766E-09
  1 100 9.56749863E-09
  1 101 9.56879775E-09
  1 102 9.56647048E-09
  1 103 9.57715042E-09
  1 104 9.57751235E-09
  1 105 9.56109364E-09
  1 106 9.57371562E-09
  1 107 9.57037278E-09
  1 108 9.57797582E-09
  1 109 9.57445704E-09
  1 110 9.56907666E-09
  1 111 9.56424659E-09
  1 112 9.56896835E-09
  1 113 9.56337318E-09
  1 114 9.56545145E-09
  1 115 9.55280321E-09
  1 116 9.55453031E-09
  1 117 9.55460527E-09
  1 118 9.56054348E-09
  1 119 9.56316245E-09
  1 120 9.56706504E-09
  1 121 9.56935187E-09
  1 122 9.58083579E-09
  1 123 9.57818568E-09
  1 124 9.57206639E-09
  1 125 9.56751090E-09
  1 126 9.53902432E-09
  1 127 9.52951154E-09
  1 128 9.54168636E-09
  1 129 9.53655646E-09
  1 130 9.61756169E-09
  1 131 9.56661286E-09
  1 132 9.57234589E-09
  1 133 9.56388294E-09
  1 134 9.57973769E-09
  1 135 9.54426883E-09
  1 136 9.49306618E-09
  1 137 9.48143149E-09
  1 138 9.47330263E-09
  1 139 9.43794609E-09
  1 140 9.41511660E-09
  1 141 9.37722861E-09
  1 142 9.37809933E-09
  1 143 9.33136779E-09
  1 144 9.31189742E-09
  1 145 9.37928795E-09
  1 146 9.34513851E-09
  1 147 9.36945853E-09
  1 148 9.33448821E-09
  1 149 9.30656883E-09
  1 150 9.26855108E-09
  1 151 9.24888987E-09
  1 152 9.20720591E-09
  1 153 9.13755282E-09
  1 154 9.08581479E-09
  1 155 8.96342535E-09
  1 156 9.04204183E-09
  1 157 9.04218161E-09
  1 158 9.09091100E-09
  1 159 9.06114319E-09
  1 160 8.99777204E-09
  1 161 8.97129793E-09
  1 162 8.89393657E-09
  1 163 8.89773707E-09
  1 164 8.78611611E-09
  1 165 8.82407667E-09
  1 166 8.85993272E-09
  1 167 8.87335641E-09
  1 168 8.82798537E-09
  1 169 8.79175541E-09
  1 170 8.72168157E-09
  1 171 8.73243102E-09
  1 172 8.68971576E-09
  1 173 8.72989633E-09
  1 174 8.75482554E-09
  1 175 8.63384232E-09
  1 176 8.62381718E-09
  1 177 8.65743848E-09
  1 178 8.66721117E-09
  1 179 8.68830190E-09
  1 180 8.66075617E-09
  1 181 8.65426894E-09
  1 182 8.70271293E-09
  1 183 8.74473637E-09
  1 184 8.94830342E-09
  1 185 8.93955775E-09
  1 186 9.00726102E-09
  1 187 9.13113624E-09
  1 188 9.13450488E-09
  1 189 9.18138614E-09
  1 190 9.18108805E-09
  1 191 9.35853887E-09
  1 192 9.07472227E-09
  1 193 9.07998697E-09
  1 194 9.12101804E-09
  1 195 9.12305332E-09
  1 196 9.13064874E-09
  1 197 9.14134073E-09
  1 198 9.09598486E-09
  1 199 9.03714866E-09
  1 200 9.04520721E-09
  1 201 9.00171868E-09
  1 202 9.00784221E-09
  1 203 8.98281637E-09
  1 204 8.96715996E-09
  1 205 1.01384487E-08
  1 206 1.01916505E-08
  1 207 1.08155187E-08
  1 208 1.11710928E-08
  1 209 1.14976092E-08
  1 210 1.15309392E-08
  1 211 1.15624000E-08
  1 212 1.15015690E-08
  1 213 1.14599625E-08
  1 214 1.14215251E-08
  1 215 1.13993835E-08
  1 216 1.14284345E-08
  1 217 1.12468717E-08
  1 218 1.09121256E-08
  1 219 1.10527084E-08
  1 220 1.07952472E-08
  1 221 1.08197698E-08
  1 222 1.08491596E-08
  1 223 1.08742607E-08
  1 224 1.09268649E-08
  1 225 1.09110350E-08
  1 226 1.08156182E-08
  1 227 1.08225253E-08
  1 228 1.07458165E-08
  1 229 1.04930538E-08
  1 230 1.02663182E-08
  1 231 1.01084758E-08
  1 232 9.95535754E-09
  1 233 9.84499123E-09
  1 234 9.91108782E-09
  1 235 9.15834095E-09
  1 236 8.86326073E-09
  1 237 8.78574632E-09
  1 238 8.54671070E-09
  1 239 8.51354081E-09
  1 240 8.50154159E-09
  1 241 8.40619687E-09
  1 242 8.28055711E-09
  1 243 8.36234968E-09
  1 244 8.37256119E-09
  1 245 7.90709510E-09
  1 246 7.99562271E-09
  1 247 7.93422362E-09
  1 248 7.93283869E-09
  1 249 7.90293428E-09
  1 250 7.89767845E-09
  1 251 7.89320473E-09
  1 252 7.89303911E-09
  1 253 7.89310792E-09
  1 254 7.88762602E-09
  1 255 7.86783631E-09
  1 256 7.84687881E-09
  1 257 7.65700542E-09
  1 258 7.63656987E-09
  1 259 7.43591384E-09
  1 260 7.36689383E-09
  1 261 7.33229286E-09
  1 262 7.27820966E-09
  1 263 7.22189106E-09
  1 264 7.17973882E-09
  1 265 7.14844732E-09
  1 266 7.01995870E-09
  1 267 6.99139106E-09
  1 268 6.92216303E-09
  1 269 6.83130552E-09
  1 270 6.56889116E-09
  1 271 6.49333770E-09
  1 272 6.36759583E-09
  1 273 6.29669978E-09
  1 274 5.96871638E-09
  1 275 5.84289070E-09
  1 276 5.79708656E-09
  1 277 5.66382229E-09
  1 278 5.55569094E-09
  1 279 5.53861084E-09
  1 280 5.53655340E-09
  1 281 5.53709179E-09
  1 282 5.53453155E-09
  1 283 5.53421471E-09
  1 284 5.53154229E-09
  1 285 5.53063976E-09
  1 286 5.52961514E-09
  1 287 5.52734338E-09
  1 288 5.52683660E-09
  1 289 5.52589472E-09
  1 290 5.52250574E-09
  1 291 5.53353259E-09
  1 292 5.53584689E-09
  1 293 5.51060190E-09
  1 294 5.50144456E-09
  1 295 5.49937006E-09
  1 296 5.50003482E-09
  1 297 5.49937352E-09
  1 298 5.49926318E-09
  1 299 5.53004733E-09
  1 300 5.66351639E-09
  1 301 5.85455243E-09
  1 302 6.18605432E-09
  1 303 6.41162336E-09
  1 304 6.54353241E-09
  1 305 6.58264267E-09
  1 306 6.59805278E-09
  1 307 6.63022102E-09
  1 308 6.63020135E-09
  1 309 6.65163885E-09
  1 310 6.72283250E-09
  1 311 6.72285625E-09
  1 312 6.71651383E-09
  1 313 6.71266424E-09
  1 314 6.70941927E-09
  1 315 6.70601267E-09
  1 316 6.67297757E-09
  1 317 6.62742783E-09
  1 318 6.62238033E-09
  1 319 6.62718516E-09
  1 320 6.57916667E-09
  1 321 6.39749174E-09
  1 322 6.37498700E-09
  1 323 6.26886100E-09
  1 324 6.21099952E-09
  1 325 5.95372605E-09
  1 326 5.86646486E-09
  1 327 5.57900032E-09
  1 328 5.56796734E-09
  1 329 5.46770519E-09
  1 330 5.45834859E-09
  1 331 5.44472103E-09
  1 332 5.44975138E-09
  1 333 5.44358806E-09
  1 334 5.41296583E-09
  1 335 5.41039178E-09
  1 336 5.43710846E-09
  1 337 5.40407429E-09
  1 338 5.40125556E-09
  1 339 5.32031161E-09
  1 340 5.17921244E-09
  1 341 5.05995739E-09
  1 342 5.05813595E-09
  1 343 5.08053173E-09
  1 344 5.05767167E-09
  1 345 5.05651580E-09
  1 346 5.23085040E-09
  1 347 5.29037355E-09
  1 348 5.44727259E-09
  1 349 5.49115909E-09
  1 350 5.50631458E-09
  1 351 5.53600553E-09
  1 352 5.55461317E-09
  1 353 5.55930435E-09
  1 354 5.54867256E-09
  1 355 5.55377719E-09
  1 356 5.55809218E-09
  1 357 5.56885271E-09
  1 358 5.58036396E-09
  1 359 5.56776636E-09
  1 360 5.58849910E-09
  1 361 5.59578589E-09
  1 362 5.61038287E-09
  1 363 5.60518502E-09
  1 364 5.62531140E-09
  1 365 5.65412717E-09
  1 366 5.65119466E-09
  1 367 5.65690236E-09
  1 368 5.65657776E-09
  1 369 5.62970555E-09
  1 370 5.61146923E-09
  1 371 5.60452649E-09
  1 372 5.59345802E-09
  1 373 5.05628877E-09
  1 374 5.06944495E-09
  1 375 5.23124707E-09
  1 376 5.23170565E-09
  1 377 5.23376010E-09
  1 378 5.23174214E-09
  1 379 5.23439803E-09
  1 380 5.45354805E-09
  1 381 5.65466418E-09
  1 382 5.75895134E-09
  1 383 6.38775426E-09
  1 384 6.51916415E-09
  1 385 6.79931707E-09
  1 386 6.69419650E-09
  1 387 6.51693430E-09
  1 388 4.70967700E-09
  1 389 4.61887326E-09
  1 390 4.62081024E-09
  1 391 4.39907228E-09
  1 392 4.15336481E-09
  1 393 4.08254864E-09
  1 394 4.08899253E-09
  1 395 4.08376112E-09
  1 396 4.09252416E-09
  1 397 4.99097302E-09
  1 398 5.30325529E-09
  1 399 5.64826739E-09
  1 400 6.06275707E-09
  1 401 6.54018730E-09
  1 402 6.57652733E-09
  1 403 6.56605815E-09
  1 404 6.57885023E-09
  1 405 6.58357457E-09
  1 406 6.65440863E-09
  1 407 6.59700496E-09
  1 408 6.57870455E-09
  1 409 6.61288680E-09
  1 410 6.67873201E-09
  1 411 7.05619794E-09
  1 412 7.18566010E-09
  1 413 7.18911358E-09
  1 414 7.18222740E-09
  1 415 7.23544052E-09
  1 416 7.22635991E-09
  1 417 7.22683087E-09
  1 418 7.12233668E-09
  1 419 6.82451277E-09
  1 420 6.39385252E-09
  1 421 6.41347254E-09
  1 422 6.36182300E-09
  1 423 6.06372360E-09
  1 424 5.87570364E-09
  1 425 5.46012718E-09
  1 426 4.42714591E-09
  1 427 4.25432761E-09
  1 428 4.07299933E-09
  1 429 4.07347221E-09
  1 430 4.07128506E-09
  1 431 4.08060618E-09
  1 432 4.09325947E-09
  1 433 4.12138653E-09
  1 434 4.12920541E-09
  1 435 4.12097206E-09
  1 436 4.13389834E-09
  1 437 4.13165661E-09
  1 438 4.16100040E-09
  1 439 4.26700649E-09
  1 440 4.45774714E-09
  1 441 4.71158557E-09
  1 442 4.89773516E-09
  1 443 4.90784386E-09
  1 444 4.92003898E-09
  1 445 4.94336497E-09
  1 446 4.95373355E-09
  1 447 4.92946984E-09
  1 448 4.94414390E-09
  1 449 5.26403546E-09
  1 450 5.36223118E-09
  1 451 5.46188068E-09
  1 452 5.58068960E-09
  1 453 5.68021301E-09
  1 454 5.77148009E-09
  1 455 5.95787081E-09
  1 456 5.95670266E-09
  1 457 5.94035332E-09
  1 458 5.91863211E-09
  1 459 5.89785503E-09
  1 460 5.90886603E-09
  1 461 5.90050876E-09
  1 462 5.90854700E-09
  1 463 5.85869136E-09
  1 464 5.86930736E-09
  1 465 5.80232408E-09
  1 466 5.94448312E-09
  1 467 6.36962680E-09
  1 468 6.65049720E-09
  1 469 6.87325770E-09
  1 470 7.16693516E-09
  1 471 7.17990214E-09
  1 472 7.21260248E-09
  1 473 7.23585456E-09
  1 474 7.23325448E-09
  1 475 7.22437107E-09
  1 476 7.22299071E-09
  1 477 7.25105110E-09
  1 478 7.35224982E-09
  1 479 7.38419387E-09
  1 480 7.38672104E-09
  1 481 7.40415530E-09
  1 482 7.42556699E-09
  1 483 7.42876208E-09
  1 484 7.42774297E-09
  1 485 7.43834843E-09
  1 486 7.44277629E-09
  1 487 7.46476844E-09
  1 488 7.70278176E-09
  1 489 7.71435995E-09
  1 490 7.71648585E-09
  1 491 7.71747663E-09
  1 492 7.72187946E-09
  1 493 7.72603323E-09
  1 494 7.72739571E-09
  1 495 7.73084987E-09
  1 496 7.73411078E-09
  1 497 7.73820887E-09
  1 498 7.73861932E-09
  1 499 7.74023782E-09
  1 500 7.74549760E-09
  1 501 7.74738494E-09
  1 502 7.75155138E-09
  1 503 7.76609583E-09
  1 504 7.77144264E-09
  1 505 7.77717305E-09
  1 506 7.78364836E-09
  1 507 7.78674837E-09
  1 508 7.79217760E-09
  1 509 7.79712498E-09
  1 510 7.80040175E-09
  1 511 7.79969673E-09
  1 512 7.79847642E-09
  1 513 7.79653792E-09
  1 514 7.79358989E-09
  1 515 7.79094391E-09
  1 516 7.77956235E-09
  1 517 7.75136559E-09
  1 518 7.73027331E-09
  1 519 7.72285165E-09
  1 520 7.70725263E-09
  1 521 7.70111767E-09
  1 522 7.68537841E-09
  1 523 7.68987902E-09
  1 524 7.68769856E-09
  1 525 7.68543171E-09
  1 526 7.68035037E-09
  1 527 7.67295836E-09
  1 528 7.66508501E-09
  1 529 7.66501656E-09
  1 530 7.67133328E-09
  1 531 7.64054093E-09
  1 532 7.64466181E-09
  1 533 7.64113726E-09
  1 534 7.64398247E-09
  1 535 7.63858430E-09
  1 536 7.63418564E-09
  1 537 7.62898530E-09
  1 538 7.62003231E-09
  1 539 7.61296306E-09
  1 540 7.60087748E-09
  1 541 7.58259967E-09
  1 542 7.58853632E-09
  1 543 7.58346241E-09
  1 544 7.58151780E-09
  1 545 7.56985526E-09
  1 546 7.55777354E-09
  1 547 7.55921490E-09
  1 548 7.54782736E-09
  1 549 7.53910109E-09
  1 550 7.53588917E-09
  1 551 7.53182431E-09
  1 552 7.52614933E-09
  1 553 7.52046414E-09
  1 554 7.49827865E-09
  1 555 7.48543352E-09
  1 556 7.47696951E-09
  1 557 7.47698604E-09
  1 558 7.47023087E-09
  1 559 7.46805636E-09
  1 560 7.46358724E-09
  1 561 7.45311650E-09
  1 562 7.43025236E-09
  1 563 7.43038400E-09
  1 564 7.42003760E-09
  1 565 7.41642932E-09
  1 566 7.40210854E-09
  1 567 7.38521780E-09
  1 568 7.35777462E-09
  1 569 7.35980038E-09
  1 570 7.34433904E-09
  1 571 7.31200563E-09
  1 572 7.29612607E-09
  1 573 7.30275358E-09
  1 574 7.29238306E-09
  1 575 7.29931264E-09
  1 576 7.28449582E-09
  1 577 7.27551433E-09
  1 578 7.27575911E-09
  1 579 7.26979193E-09
  1 580 7.25732660E-09
  1 581 7.23910086E-09
  1 582 7.22254537E-09
  1 583 7.21476358E-09
  1 584 7.20609537E-09
  1 585 7.20959126E-09
  1 586 7.18005123E-09
  1 587 7.17637091E-09
  1 588 7.16002740E-09
  1 589 7.12979457E-09
  1 590 7.12798699E-09
  1 591 7.11697927E-09
  1 592 7.10123907E-09
  1 593 7.08368126E-09
  1 594 7.07219247E-09
  1 595 7.02566128E-09
  1 596 7.02766863E-09
  1 597 7.00953637E-09
  1 598 6.98051737E-09
  1 599 6.97020077E-09
  1 600 6.91807498E-09
  1 601 6.90453140E-09
  1 602 6.87417915E-09
  1 603 6.86121072E-09
  1 604 6.84326393E-09
  1 605 6.82732173E-09
  1 606 6.80995259E-09
  1 607 6.78507839E-09
  1 608 6.77566206E-09
  1 609 6.73419768E-09
  1 610 6.74214022E-09
  1 611 6.70652525E-09
  1 612 6.69718280E-09
  1 613 6.66896731E-09
  1 614 6.60693193E-09
  1 615 6.62847174E-09
  1 616 6.63714026E-09
  1 617 6.49000966E-09
  1 618 6.47328838E-09
  1 619 6.46094924E-09
  1 620 6.46374076E-09
  1 621 6.44235745E-09
  1 622 6.37534301E-09
  1 623 6.05843922E-09
  1 624 5.89359990E-09
  1 625 5.71318804E-09
  1 626 5.68527878E-09
  1 627 5.68273692E-09
  1 628 5.69407326E-09
  1 629 5.67993693E-09
  1 630 5.67738824E-09
  1 631 5.68828071E-09
  1 632 5.72744537E-09
  1 633 5.68407787E-09
  1 634 5.67200215E-09
  1 635 5.69087086E-09
  1 636 5.72925686E-09
  1 637 5.80178400E-09
  1 638 5.89973352E-09
  1 639 6.22713158E-09
  1 640 6.82724507E-09
  1 641 7.18481972E-09
  1 642 7.16948809E-09
  1 643 8.01714313E-09
  1 644 8.01514961E-09
  1 645 8.01271850E-09
  1 646 8.01029580E-09
  1 647 8.00701866E-09
  1 648 8.00178693E-09
  1 649 7.99632155E-09
  1 650 7.99520691E-09
  1 651 7.99478500E-09
  1 652 7.99216788E-09
  1 653 7.99219324E-09
  1 654 7.98998347E-09
  1 655 7.98677724E-09
  1 656 7.98003309E-09
  1 657 7.97833171E-09
  1 658 7.97692661E-09
  1 659 7.97492301E-09
  1 660 7.97018302E-09
  1 661 7.96875171E-09
  1 662 7.96221648E-09
  1 663 7.95979337E-09
  1 664 7.95683720E-09
  1 665 7.95338348E-09
  1 666 7.95298882E-09
  1 667 7.94762421E-09
  1 668 7.94349291E-09
  1 669 7.94229554E-09
  1 670 7.93903243E-09
  1 671 7.93689359E-09
  1 672 7.93401273E-09
  1 673 7.93211606E-09
  1 674 7.93197419E-09
  1 675 7.92675081E-09
  1 676 7.91733468E-09
  1 677 7.91716916E-09
  1 678 7.91565530E-09
  1 679 7.91555662E-09
  1 680 7.91499274E-09
  1 681 7.91187397E-09
  1 682 7.90546407E-09
  1 683 7.90385288E-09
  1 684 7.90237201E-09
  1 685 7.90134785E-09
  1 686 7.89560830E-09
  1 687 7.89477714E-09
  1 688 7.89469194E-09
  1 689 7.89055279E-09
  1 690 7.88938786E-09
  1 691 7.88839908E-09
  1 692 7.88658904E-09
  1 693 7.88322077E-09
  1 694 7.87921484E-09
  1 695 7.87551949E-09
  1 696 7.87544971E-09
  1 697 7.87497570E-09
  1 698 7.86985103E-09
  1 699 7.86747753E-09
  1 700 7.86575651E-09
  1 701 7.86338984E-09
  1 702 7.86318481E-09
  1 703 7.85853856E-09
  1 704 7.85699030E-09
  1 705 7.85692085E-09
  1 706 7.85239484E-09
  1 707 7.84990841E-09
  1 708 7.84814420E-09
  1 709 7.84469801E-09
  1 710 7.84466780E-09
  1 711 7.84378148E-09
  1 712 7.84261038E-09
  1 713 7.84258810E-09
  1 714 7.84117572E-09
  1 715 7.83850995E-09
  1 716 7.83664647E-09
  1 717 7.83559570E-09
  1 718 7.83486642E-09
  1 719 7.83417120E-09
  1 720 7.82981427E-09
  1 721 7.82841686E-09
  1 722 7.82834832E-09
  1 723 7.82651168E-09
  1 724 7.82302785E-09
  1 725 7.82191578E-09
  1 726 7.82189489E-09
  1 727 7.81472061E-09
  1 728 7.81309718E-09
  1 729 7.81006286E-09
  1 730 7.80997716E-09
  1 731 7.80948384E-09
  1 732 7.80998586E-09
  1 733 7.81057992E-09
  1 734 7.81052505E-09
  1 735 7.80981268E-09
  1 736 7.80843904E-09
  1 737 7.80640547E-09
  1 738 7.80371886E-09
  1 739 7.80039202E-09
  1 740 7.79644410E-09
  1 741 7.79190089E-09
  1 742 7.78679516E-09
  1 743 7.78342625E-09
  1 744 7.78069827E-09
  1 745 7.77452585E-09
  1 746 7.76987028E-09
  1 747 7.76721031E-09
  1 748 7.76249209E-09
  1 749 7.75729227E-09
  1 750 7.75164995E-09
  1 751 7.74561020E-09
  1 752 7.74233972E-09
  1 753 7.74082680E-09
  1 754 7.73867382E-09
  1 755 7.73589978E-09
  1 756 7.73251898E-09
  1 757 7.72855175E-09
  1 758 7.72402472E-09
  1 759 7.71897102E-09
  1 760 7.71517958E-09
  1 761 7.71192917E-09
  1 762 7.71170238E-09
  1 763 7.71115885E-09
  1 764 7.71090235E-09
  1 765 7.70688728E-09
  1 766 7.70261421E-09
  1 767 7.70193273E-09
  1 768 7.70063979E-09
  1 769 7.69992341E-09
  1 770 7.69947649E-09
  1 771 7.69900453E-09
  1 772 7.69388639E-09
  1 773 7.68851744E-09
  1 774 7.68706938E-09
  1 775 7.68450278E-09
  1 776 7.68413222E-09
  1 777 7.68294587E-09
  1 778 7.68062590E-09
  1 779 7.67762994E-09
  1 780 7.67720049E-09
  1 781 7.67356620E-09
  1 782 7.67143752E-09
  1 783 7.66842395E-09
  1 784 7.66831387E-09
  1 785 7.66444290E-09
  1 786 7.66003491E-09
  1 787 7.65512477E-09
  1 788 7.64975390E-09
  1 789 7.64397018E-09
  1 790 7.63782771E-09
  1 791 7.63138652E-09
  1 792 7.62471202E-09
  1 793 7.61787440E-09
  1 794 7.61094778E-09
  1 795 7.60400925E-09
  1 796 7.59713782E-09
  1 797 7.59514062E-09
  1 798 7.59391782E-09
  1 799 7.59222208E-09
  1 800 7.58661682E-09
  1 801 7.58620105E-09
  1 802 7.58176459E-09
  1 803 7.58102470E-09
  1 804 7.57680832E-09
  1 805 7.57230081E-09
  1 806 7.56894303E-09
  1 807 7.56769431E-09
  1 808 7.56763432E-09
  1 809 7.56707531E-09
  1 810 7.56564345E-09
  1 811 7.56369300E-09
  1 812 7.56348777E-09
  1 813 7.56130139E-09
  1 814 7.55871683E-09
  1 815 7.55575319E-09
  1 816 7.55529471E-09
  1 817 7.55457334E-09
  1 818 7.55453865E-09
  1 819 7.55208033E-09
  1 820 7.54923980E-09
  1 821 7.54604029E-09
  1 822 7.54310104E-09
  1 823 7.54266881E-09
  1 824 7.54009775E-09
  1 825 7.53982802E-09
  1 826 7.53670166E-09
  1 827 7.53311624E-09
  1 828 7.52948750E-09
  1 829 7.52789317E-09
  1 830 7.52750249E-09
  1 831 7.52659322E-09
  1 832 7.52605454E-09
  1 833 7.52205891E-09
  1 834 7.52092217E-09
  1 835 7.51895005E-09
  1 836 7.51530462E-09
  1 837 7.51505955E-09
  1 838 7.51435468E-09
  1 839 7.51332697E-09
  1 840 7.51198402E-09
  1 841 7.51033688E-09
  1 842 7.50840001E-09
  1 843 7.50619115E-09
  1 844 7.50373119E-09
  1 845 7.50104399E-09
  1 846 7.50045385E-09
  1 847 7.49944277E-09
  1 848 7.49943218E-09
  1 849 7.49912554E-09
  1 850 7.49887018E-09
  1 851 7.49783089E-09
  1 852 7.49638480E-09
  1 853 7.49607416E-09
  1 854 7.49588054E-09
  1 855 7.49440252E-09
  1 856 7.49267283E-09
  1 857 7.49250563E-09
  1 858 7.49189693E-09
  1 859 7.49016757E-09
  1 860 7.48862964E-09
  1 861 7.48939416E-09
  1 862 7.49071458E-09
  1 863 7.49095497E-09
  1 864 7.49233725E-09
  1 865 7.49342930E-09
  1 866 7.49353496E-09
  1 867 7.49418432E-09
  1 868 7.49465062E-09
  1 869 7.49471486E-09
  1 870 7.49473130E-09
  1 871 7.49823011E-09
  1 872 7.50185241E-09
  1 873 7.50536109E-09
  1 874 7.50577460E-09
  1 875 7.50875421E-09
  1 876 7.51142207E-09
  1 877 7.51370777E-09
  1 878 7.51829582E-09
  1 879 7.52272564E-09
  1 880 7.52694807E-09
  1 881 7.52809683E-09
  1 882 7.52891904E-09
  1 883 7.53370242E-09
  1 884 7.53539523E-09
  1 885 7.53600055E-09
  1 886 7.53776688E-09
  1 887 7.53869588E-09
  1 888 7.54471162E-09
  1 889 7.55066157E-09
  1 890 7.55647980E-09
  1 891 7.55693709E-09
  1 892 7.56304386E-09
  1 893 7.56884128E-09
  1 894 7.57425615E-09
  1 895 7.57575646E-09
  1 896 7.57895277E-09
  1 897 7.57912074E-09
  1 898 7.57943622E-09
  1 899 7.57965122E-09
  1 900 7.58103601E-09
  1 901 7.58671688E-09
  1 902 7.59205649E-09
  1 903 7.59467539E-09
  1 904 7.59473421E-09
  1 905 7.59486859E-09
  1 906 7.59700028E-09
  1 907 7.59734578E-09
  1 908 7.59797057E-09
  1 909 7.59943748E-09
  1 910 7.60334923E-09
  1 911 7.60591686E-09
  1 912 7.61153983E-09
  1 913 7.61676467E-09
  1 914 7.62154212E-09
  1 915 7.62181115E-09
  1 916 7.62241695E-09
  1 917 7.62449165E-09
  1 918 7.63048715E-09
  1 919 7.63459338E-09
  1 920 7.63744423E-09
  1 921 7.64311844E-09
  1 922 7.64454377E-09
  1 923 7.64703440E-09
  1 924 7.64787499E-09
  1 925 7.65460722E-09
  1 926 7.66194101E-09
  1 927 7.66903282E-09
  1 928 7.67581426E-09
  1 929 7.68222194E-09
  1 930 7.68819812E-09
  1 931 7.69369118E-09
  1 932 7.69421266E-09
  1 933 7.69452727E-09
  1 934 7.69607711E-09
  1 935 7.70353808E-09
  1 936 7.71065830E-09
  1 937 7.71664007E-09
  1 938 7.71861533E-09
  1 939 7.72755728E-09
  1 940 7.73609020E-09
  1 941 7.73668612E-09
  1 942 7.74369071E-09
  1 943 7.75024010E-09
  1 944 7.75627746E-09
  1 945 7.75681613E-09
  1 946 7.76307081E-09
  1 947 7.76948346E-09
  1 948 7.77196822E-09
  1 949 7.77295917E-09
  1 950 7.77583541E-09
  1 951 7.77642075E-09
  1 952 7.77759192E-09
  1 953 7.77793889E-09
  1 954 7.77956932E-09
  1 955 7.77988510E-09
  1 956 7.78742640E-09
  1 957 7.78871251E-09
  1 958 7.78883836E-09
  1 959 7.79010950E-09
  1 960 7.79414974E-09
  1 961 7.79415453E-09
  1 962 7.79610501E-09
  1 963 7.79930931E-09
  1 964 7.80038379E-09
  1 965 7.80051967E-09
  1 966 7.80094293E-09
  1 967 7.80203803E-09
  1 968 7.80200279E-09
  1 969 7.80782174E-09
  1 970 7.80846949E-09
  1 971 7.81051078E-09
  1 972 7.81104051E-09
  1 973 7.81238434E-09
  1 974 7.81403530E-09
  1 975 7.81414971E-09
  1 976 7.81514348E-09
  1 977 7.82214189E-09
  1 978 7.82851722E-09
  1 979 7.82958091E-09
  1 980 7.83045387E-09
  1 981 7.83088284E-09
  1 982 7.83208490E-09
  1 983 7.83282801E-09
  1 984 7.83532307E-09
  1 985 7.83535485E-09
  1 986 7.83630603E-09
  1 987 7.83770295E-09
  1 988 7.83803438E-09
  1 989 7.84252219E-09
  1 990 7.84641706E-09
  1 991 7.84691563E-09
  1 992 7.84801677E-09
  1 993 7.85141452E-09
  1 994 7.85172241E-09
  1 995 7.85188722E-09
  1 996 7.85243445E-09
  1 997 7.85409012E-09
  1 998 7.85478383E-09
  1 999 7.85542722E-09
  1 1000 7.85593052E-09
  1 1001 7.85725466E-09
  1 1002 7.85811901E-09
  1 1003 7.85892082E-09
  1 1004 7.85964765E-09
  1 1005 7.86011589E-09
  1 1006 7.86078128E-09
  1 1007 7.86108954E-09
  1 1008 7.86357292E-09
  1 1009 7.86392239E-09
  1 1010 7.86436941E-09
  1 1011 7.86712500E-09
  1 1012 7.86781922E-09
  1 1013 7.87341507E-09
  1 1014 7.87399804E-09
  1 1015 7.87512963E-09
  1 1016 7.87563568E-09
  1 1017 7.88098796E-09
  1 1018 7.88306316E-09
  1 1019 7.88329721E-09
  1 1020 7.88606443E-09
  1 1021 7.88610721E-09
  1 1022 7.88702028E-09
  1 1023 7.88807186E-09
  1 1024 7.88869203E-09
  1 1025 7.88890391E-09
  1 1026 7.88887662E-09
  1 1027 7.89280662E-09
  1 1028 7.89355499E-09
  1 1029 7.89491305E-09
  1 1030 7.89558069E-09
  1 1031 7.89570270E-09
  1 1032 7.89604032E-09
  1 1033 7.89664406E-09
  1 1034 7.89780728E-09
  1 1035 7.89882800E-09
  1 1036 7.90187214E-09
  1 1037 7.90293838E-09
  1 1038 7.90413939E-09
  1 1039 7.90502518E-09
  1 1040 7.90711628E-09
  1 1041 7.90751401E-09
  1 1042 7.90749757E-09
  1 1043 7.91008428E-09
  1 1044 7.91078277E-09
  1 1045 7.91148739E-09
  1 1046 7.91300241E-09
  1 1047 7.91331200E-09
  1 1048 7.91418156E-09
  1 1049 7.91789932E-09
  1 1050 7.92201979E-09
  1 1051 7.92259836E-09
  1 1052 7.92721420E-09
  1 1053 7.92996140E-09
  1 1054 7.93288082E-09
  1 1055 7.93693914E-09
  1 1056 7.93715115E-09
  1 1057 7.93876261E-09
  1 1058 7.93981753E-09
  1 1059 7.93998460E-09
  1 1060 7.94191137E-09
  1 1061 7.94217561E-09
  1 1062 7.94312593E-09
  1 1063 7.94642125E-09
  1 1064 7.95128847E-09
  1 1065 7.95154150E-09
  1 1066 7.95578996E-09
  1 1067 7.95602793E-09
  1 1068 7.95989417E-09
  1 1069 7.96002017E-09
  1 1070 7.96114204E-09
  1 1071 7.96230702E-09
  1 1072 7.96343564E-09
  1 1073 7.96504958E-09
  1 1074 7.96784526E-09
  1 1075 7.97198838E-09
  1 1076 7.97549435E-09
  1 1077 7.97834510E-09
  1 1078 7.97858479E-09
  1 1079 7.97986318E-09
  1 1080 7.98223388E-09
  1 1081 7.98226198E-09
  1 1082 7.98255968E-09
  1 1083 7.98268662E-09
  1 1084 7.98281598E-09
  1 1085 7.98284276E-09
  1 1086 7.98314098E-09
  1 1087 7.98364222E-09
  1 1088 7.98410631E-09
  1 1089 7.98425039E-09
  1 1090 7.98421595E-09
  1 1091 7.98445872E-09
  1 1092 7.98490793E-09
  1 1093 7.98499042E-09
  1 1094 7.98509646E-09
  1 1095 7.98767015E-09
  1 1096 7.98811808E-09
  1 1097 7.98817697E-09
  1 1098 7.98960541E-09
  1 1099 7.99012408E-09
  1 1100 7.99015637E-09
  1 1101 7.99055112E-09
  1 1102 7.99165780E-09
  1 1103 7.99232285E-09
  1 1104 7.99243737E-09
  1 1105 7.99246414E-09
  1 1106 7.99248521E-09
  1 1107 7.99252878E-09
  1 1108 7.99314796E-09
  1 1109 7.99345619E-09
  1 1110 7.99350743E-09
  1 1111 7.99358626E-09
  1 1112 7.99360967E-09
  1 1113 7.99369444E-09
  1 1114 7.99378478E-09
  1 1115 7.99379461E-09
  1 1116 7.99382363E-09
  1 1117 7.99407300E-09
  1 1118 7.99411684E-09
  1 1119 7.99410035E-09
  1 1120 7.99414420E-09
  1 1121 7.99417512E-09
  1 1122 7.99428247E-09
  1 1123 7.99483725E-09
  1 1124 7.99489790E-09
  1 1125 7.99501986E-09
  1 1126 7.99504130E-09
  1 1127 7.99504598E-09
  1 1128 7.99511320E-09
  1 1129 7.99514962E-09
  1 1130 7.99511025E-09
  1 1131 7.99528793E-09
  1 1132 7.99527896E-09
  1 1133 7.99526765E-09
  1 1134 7.99592634E-09
  1 1135 7.99613584E-09
  1 1136 7.99652195E-09
  1 1137 7.99661633E-09
  1 1138 7.99679649E-09
  1 1139 7.99685514E-09
  1 1140 7.99728177E-09
  1 1141 7.99791557E-09
  1 1142 7.99815352E-09
  1 1143 7.99814948E-09
  1 1144 7.99813739E-09
  1 1145 7.99812417E-09
  1 1146 7.99806914E-09
  1 1147 7.99807050E-09
  1 1148 7.99822397E-09
  1 1149 7.99820482E-09
  1 1150 7.99785238E-09
  1 1151 7.99787434E-09
  1 1152 7.99782093E-09
  1 1153 7.99781426E-09
  1 1154 7.99774414E-09
  1 1155 7.99765057E-09
  1 1156 7.99759528E-09
  1 1157 7.99722101E-09
  1 1158 7.99706265E-09
  1 1159 7.99798179E-09
  1 1160 7.99821998E-09
  1 1161 8.00061821E-09
  1 1162 8.00083607E-09
  1 1163 8.00101651E-09
  1 1164 8.00115889E-09
  1 1165 8.00207509E-09
  1 1166 8.00215087E-09
  1 1167 8.00243367E-09
  1 1168 8.00254593E-09
  1 1169 8.00292389E-09
  1 1170 8.00299235E-09
  1 1171 8.00308372E-09
  1 1172 8.00310384E-09
  1 1173 8.00302852E-09
  1 1174 8.00296267E-09
  1 1175 8.00252391E-09
  1 1176 8.00213592E-09
  1 1177 8.00171611E-09
  1 1178 8.00405997E-09
  1 1179 8.00587047E-09
  1 1180 8.00860891E-09
  1 1181 8.01110928E-09
  1 1182 8.01330503E-09
  1 1183 8.01387421E-09
  1 1184 8.01434288E-09
  1 1185 8.01439603E-09
  1 1186 8.01628077E-09
  1 1187 8.01673412E-09
  1 1188 8.01722105E-09
  1 1189 8.01735729E-09
  1 1190 8.01733159E-09
  1 1191 8.01824179E-09
  1 1192 8.01826963E-09
  1 1193 8.01939668E-09
  1 1194 8.01941906E-09
  1 1195 8.02169122E-09
  1 1196 8.02180513E-09
  1 1197 8.02253225E-09
  1 1198 8.02279087E-09
  1 1199 8.02423868E-09
  1 1200 8.02536911E-09
  1 1201 8.02616646E-09
  1 1202 8.02662077E-09
  1 1203 8.02664278E-09
  1 1204 8.02666913E-09
  1 1205 8.02668252E-09
  1 1206 8.02673459E-09
  1 1207 8.02688728E-09
  1 1208 8.02675230E-09
  1 1209 8.02625614E-09
  1 1210 8.02575950E-09
  1 1211 8.02509352E-09
  1 1212 8.02508565E-09
  1 1213 8.02497503E-09
  1 1214 8.02480651E-09
  1 1215 8.02451855E-09
  1 1216 8.02415452E-09
  1 1217 8.02419661E-09
  1 1218 8.02437244E-09
  1 1219 8.02436610E-09
  1 1220 8.02436480E-09
  1 1221 8.02435886E-09
  1 1222 8.02406721E-09
  1 1223 8.02399997E-09
  1 1224 8.02327565E-09
  1 1225 8.02315916E-09
  1 1226 8.02261222E-09
  1 1227 8.02255380E-09
  1 1228 8.02253543E-09
  1 1229 8.02195826E-09
  1 1230 8.02027644E-09
  1 1231 8.02004338E-09
  1 1232 8.01969452E-09
  1 1233 8.01954477E-09
  1 1234 8.01772185E-09
  1 1235 8.01562212E-09
  1 1236 8.01553421E-09
  1 1237 8.01499344E-09
  1 1238 8.01489238E-09
  1 1239 8.01443316E-09
  1 1240 8.01430453E-09
  1 1241 8.01297720E-09
  1 1242 8.01152630E-09
  1 1243 8.01135654E-09
  1 1244 8.00996616E-09
  1 1245 8.00975823E-09
  1 1246 8.00906384E-09
  1 1247 8.00925211E-09
  1 1248 8.00951473E-09
  1 1249 8.00951930E-09
  1 1250 8.00936809E-09
  1 1251 8.00873182E-09
  1 1252 8.00759307E-09
  1 1253 8.00742487E-09
  1 1254 8.00713760E-09
  1 1255 8.00695535E-09
  1 1256 8.00683470E-09
  1 1257 8.00659273E-09
  1 1258 8.00642886E-09
  1 1259 8.00553660E-09
  1 1260 8.00433576E-09
  1 1261 8.00426078E-09
  1 1262 8.00351542E-09
  1 1263 8.00336239E-09
  1 1264 8.00155154E-09
  1 1265 7.99933606E-09
  1 1266 7.99899401E-09
  1 1267 7.99477852E-09
  1 1268 7.99438481E-09
  1 1269 7.99382326E-09
  1 1270 7.99361858E-09
  1 1271 7.99314158E-09
  1 1272 7.99333555E-09
  1 1273 7.99344241E-09
  1 1274 7.99346942E-09
  1 1275 7.99375481E-09
  1 1276 7.99424148E-09
  1 1277 7.99439054E-09
  1 1278 7.99452106E-09
  1 1279 7.99454390E-09
  1 1280 7.99465492E-09
  1 1281 7.99479107E-09
  1 1282 7.99532540E-09
  1 1283 7.99540391E-09
  1 1284 7.99555111E-09
  1 1285 7.99658688E-09
  1 1286 7.99671599E-09
  1 1287 7.99875984E-09