# File generated by Flopy version 3.9.1 on 02/10/2026 at 00:17:13.
BEGIN options
  SAVE_FLOWS
END options

BEGIN dimensions
  MAXBOUND  43045
END dimensions

BEGIN period  1
  2 187 -0.00000000E+00
  2 188 -0.00000000E+00
  2 189 -0.00000000E+00
  2 190 -0.00000000E+00
  2 191 -0.00000000E+00
  2 192 -0.00000000E+00
  2 11854 -2.51527842E-03
  2 11855 -2.51527842E-03
  2 11856 -2.51527842E-03
  2 11857 -2.51527842E-03
  2 11858 -2.51527842E-03
  2 11859 -2.51527842E-03
  2 11860 -0.00000000E+00
  2 11861 -0.00000000E+00
  2 11862 -0.00000000E+00
  2 11863 -0.00000000E+00
  2 11864 -0.00000000E+00
  2 11865 -0.00000000E+00
  2 11866 -0.00000000E+00
  2 11867 -0.00000000E+00
  2 11868 -0.00000000E+00
  2 11869 -0.00000000E+00
  2 11870 -0.00000000E+00
  2 11871 -0.00000000E+00
  2 11872 -0.00000000E+00
  2 11873 -0.00000000E+00
  2 11874 -0.00000000E+00
  2 11875 -0.00000000E+00
  2 11876 -0.00000000E+00
  2 11877 -0.00000000E+00
  2 11878 -0.00000000E+00
  2 11879 -0.00000000E+00
  2 11880 -1.25763921E-03
  2 11881 -3.77291763E-03
  2 11882 -3.77291763E-03
  2 11883 -3.77291763E-03
  2 11884 -3.77291763E-03
  2 11885 -3.77291763E-03
  2 11886 -3.77291763E-03
  2 11887 -3.77291763E-03
  2 11888 -3.77291763E-03
  2 11889 -3.77291763E-03
  2 11890 -3.77291763E-03
  2 11891 -3.77291763E-03
  2 11892 -3.77291763E-03
  2 11893 -3.77291763E-03
  2 11894 -3.77291763E-03
  2 11895 -3.77291763E-03
  2 11896 -3.77291763E-03
  2 11897 -3.77291763E-03
  2 11898 -3.77291763E-03
  2 11899 -3.77291763E-03
  2 11900 -3.77291763E-03
  2 11901 -3.77291763E-03
  2 11902 -3.77291763E-03
  2 11903 -3.52138979E-02
  2 11904 -0.00000000E+00
  2 11905 -0.00000000E+00
  2 11906 -0.00000000E+00
  2 11907 -0.00000000E+00
  2 11908 -0.00000000E+00
  2 11909 -0.00000000E+00
  2 11910 -0.00000000E+00
  2 11911 -0.00000000E+00
  2 11912 -0.00000000E+00
  2 11913 -0.00000000E+00
  2 11914 -0.00000000E+00
  2 11915 -0.00000000E+00
  2 11916 -0.00000000E+00
  2 11917 -0.00000000E+00
  2 11918 -0.00000000E+00
  2 11919 -1.63493097E-02
  2 12322 -0.00000000E+00
  2 12323 -0.00000000E+00
  2 12324 -0.00000000E+00
  2 12325 -0.00000000E+00
  2 12326 -0.00000000E+00
  2 12327 -0.00000000E+00
  2 12328 -0.00000000E+00
  2 12329 -0.00000000E+00
  2 12330 -0.00000000E+00
  2 12331 -0.00000000E+00
  2 12332 -0.00000000E+00
  2 12333 -0.00000000E+00
  2 12334 -0.00000000E+00
  2 12335 -0.00000000E+00
  2 12336 -0.00000000E+00
  2 12337 -0.00000000E+00
  2 12338 -0.00000000E+00
  2 12339 -0.00000000E+00
  2 12340 -0.00000000E+00
  2 12341 -0.00000000E+00
  2 12342 -0.00000000E+00
  2 12343 -0.00000000E+00
  2 12344 -0.00000000E+00
  2 12345 -0.00000000E+00
  2 12346 -0.00000000E+00
  2 12347 -0.00000000E+00
  2 12348 -0.00000000E+00
  2 12349 -0.00000000E+00
  2 12350 -0.00000000E+00
  2 12351 -0.00000000E+00
  2 12352 -0.00000000E+00
  2 12353 -0.00000000E+00
  2 12354 -0.00000000E+00
  2 12355 -0.00000000E+00
  2 12356 -0.00000000E+00
  2 12357 -0.00000000E+00
  2 12358 -0.00000000E+00
  2 12359 -2.51527842E-03
  2 12360 -0.00000000E+00
  2 12482 -0.00000000E+00
  2 12483 -0.00000000E+00
  2 12484 -0.00000000E+00
  2 12485 -0.00000000E+00
  2 12486 -0.00000000E+00
  2 12794 -0.00000000E+00
  2 12795 -0.00000000E+00
  2 12796 -0.00000000E+00
  2 12797 -0.00000000E+00
  2 12798 -0.00000000E+00
  2 12799 -2.51527842E-03
  2 12868 -0.00000000E+00
  2 12869 -0.00000000E+00
  2 12870 -0.00000000E+00
  2 12871 -0.00000000E+00
  2 12872 -0.00000000E+00
  2 13034 -0.00000000E+00
  2 13035 -0.00000000E+00
  2 13114 -0.00000000E+00
  2 13117 -0.00000000E+00
  2 13118 -0.00000000E+00
  2 13119 -0.00000000E+00
  2 13120 -0.00000000E+00
  2 13121 -0.00000000E+00
  2 13122 -0.00000000E+00
  2 13157 -0.00000000E+00
  2 13158 -0.00000000E+00
  2 13159 -0.00000000E+00
  2 13259 -0.00000000E+00
  2 13260 -0.00000000E+00
  2 13261 -0.00000000E+00
  2 13262 -0.00000000E+00
  2 13374 -0.00000000E+00
  2 13377 -0.00000000E+00
  2 13378 -0.00000000E+00
  2 13379 -0.00000000E+00
  2 13381 -0.00000000E+00
  2 13383 -0.00000000E+00
  2 13415 -0.00000000E+00
  2 13416 -0.00000000E+00
  2 13417 -0.00000000E+00
  2 13418 -0.00000000E+00
  2 13432 -0.00000000E+00
  2 13434 -0.00000000E+00
  2 13435 -0.00000000E+00
  2 13500 -0.00000000E+00
  2 13501 -0.00000000E+00
  2 13502 -0.00000000E+00
  2 13503 -0.00000000E+00
  2 13533 -0.00000000E+00
  2 13534 -0.00000000E+00
  2 13535 -0.00000000E+00
  2 13595 -0.00000000E+00
  2 13596 -0.00000000E+00
  2 13612 -0.00000000E+00
  2 13613 -0.00000000E+00
  2 13614 -0.00000000E+00
  2 13615 -0.00000000E+00
  2 13683 -0.00000000E+00
  2 13685 -0.00000000E+00
  2 13687 -0.00000000E+00
  2 13688 -0.00000000E+00
  2 13689 -0.00000000E+00
  2 13808 -0.00000000E+00
  2 13809 -0.00000000E+00
  2 13810 -0.00000000E+00
  2 13840 -0.00000000E+00
  2 13841 -0.00000000E+00
  2 13842 -0.00000000E+00
  2 13843 -0.00000000E+00
  2 13851 -0.00000000E+00
  2 13852 -0.00000000E+00
  2 13853 -0.00000000E+00
  2 13854 -0.00000000E+00
  2 13859 -0.00000000E+00
  2 13860 -0.00000000E+00
  2 13861 -0.00000000E+00
  2 13928 -0.00000000E+00
  2 13932 -0.00000000E+00
  2 13933 -0.00000000E+00
  2 13934 -0.00000000E+00
  2 13935 -0.00000000E+00
  2 13936 -0.00000000E+00
  2 13969 -0.00000000E+00
  2 13970 -0.00000000E+00
  2 14073 -0.00000000E+00
  2 14074 -0.00000000E+00
  2 14075 -0.00000000E+00
  2 14136 -0.00000000E+00
  2 14137 -0.00000000E+00
  2 14139 -0.00000000E+00
  2 14140 -0.00000000E+00
  2 14292 -0.00000000E+00
  2 14293 -0.00000000E+00
  2 14294 -0.00000000E+00
  2 14295 -0.00000000E+00
  2 14296 -0.00000000E+00
  2 14297 -0.00000000E+00
  2 14306 -0.00000000E+00
  2 14307 -0.00000000E+00
  2 14308 -0.00000000E+00
  2 14309 -0.00000000E+00
  2 14310 -0.00000000E+00
  2 14315 -0.00000000E+00
  2 14317 -0.00000000E+00
  2 14318 -0.00000000E+00
  2 14345 -0.00000000E+00
  2 14346 -0.00000000E+00
  2 14347 -0.00000000E+00
  2 14349 -0.00000000E+00
  2 14350 -0.00000000E+00
  2 14378 -0.00000000E+00
  2 14379 -0.00000000E+00
  2 14381 -0.00000000E+00
  2 14382 -0.00000000E+00
  2 14383 -0.00000000E+00
  2 14384 -0.00000000E+00
  2 14416 -0.00000000E+00
  2 14531 -0.00000000E+00
  2 14532 -0.00000000E+00
  2 14533 -0.00000000E+00
  2 14648 -0.00000000E+00
  2 14650 -0.00000000E+00
  2 14651 -0.00000000E+00
  2 14669 -0.00000000E+00
  2 14670 -0.00000000E+00
  2 14685 -0.00000000E+00
  2 14686 -0.00000000E+00
  2 14687 -0.00000000E+00
  2 14886 -0.00000000E+00
  2 14887 -0.00000000E+00
  2 14895 -0.00000000E+00
  2 14896 -0.00000000E+00
  2 14989 -0.00000000E+00
  2 14992 -0.00000000E+00
  2 14993 -0.00000000E+00
  2 19421 -0.00000000E+00
  2 19422 -0.00000000E+00
  2 19423 -0.00000000E+00
  2 19813 -0.00000000E+00
  2 19814 -0.00000000E+00
  2 19815 -0.00000000E+00
  2 19817 -0.00000000E+00
  2 19818 -0.00000000E+00
  2 19819 -0.00000000E+00
  2 19897 -0.00000000E+00
  2 19899 -0.00000000E+00
  2 19939 -0.00000000E+00
  2 19950 -0.00000000E+00
  2 19951 -0.00000000E+00
  2 19952 -0.00000000E+00
  2 19984 -0.00000000E+00
  2 19985 -0.00000000E+00
  2 19986 -0.00000000E+00
  2 19987 -2.51527842E-03
  2 19988 -2.51527842E-03
  2 19989 -3.77291763E-03
  2 19990 -3.77291763E-03
  2 19991 -3.77291763E-03
  2 19992 -3.77291763E-03
  2 20063 -0.00000000E+00
  2 20064 -0.00000000E+00
  2 20347 -0.00000000E+00
  2 20381 -0.00000000E+00
  2 20382 -0.00000000E+00
  2 20383 -0.00000000E+00
  2 20399 -0.00000000E+00
  2 20403 -0.00000000E+00
  2 20407 -0.00000000E+00
  2 20408 -0.00000000E+00
  2 20409 -0.00000000E+00
  2 20410 -0.00000000E+00
  2 20411 -0.00000000E+00
  2 20412 -0.00000000E+00
  2 20413 -0.00000000E+00
  2 20490 -0.00000000E+00
  2 20494 -0.00000000E+00
  2 20495 -0.00000000E+00
  2 20496 -0.00000000E+00
  2 20497 -0.00000000E+00
  2 20498 -0.00000000E+00
  2 20499 -0.00000000E+00
  2 20500 -0.00000000E+00
  2 20501 -0.00000000E+00
  2 20502 -2.51527842E-03
  2 20503 -2.51527842E-03
  2 20504 -2.51527842E-03
  2 20505 -2.51527842E-03
  2 20506 -3.77291763E-03
  2 20507 -3.77291763E-03
  2 20508 -3.77291763E-03
  2 20509 -3.77291763E-03
  2 20510 -3.77291763E-03
  2 20511 -0.00000000E+00
  2 20512 -3.77291763E-03
  2 20513 -3.77291763E-03
  2 20514 -3.77291763E-03
  2 20515 -3.77291763E-03
  2 20516 -0.00000000E+00
  2 20517 -3.77291763E-03
  2 20518 -3.77291763E-03
  2 20726 -0.00000000E+00
  2 20727 -0.00000000E+00
  2 20728 -0.00000000E+00
  2 20729 -0.00000000E+00
  2 20731 -0.00000000E+00
  2 20732 -0.00000000E+00
  2 20808 -0.00000000E+00
  2 20809 -0.00000000E+00
  2 20810 -0.00000000E+00
  2 20820 -0.00000000E+00
  2 20821 -0.00000000E+00
  2 20822 -0.00000000E+00
  2 20823 -0.00000000E+00
  2 20841 -0.00000000E+00
  2 20842 -0.00000000E+00
  2 20843 -0.00000000E+00
  2 20903 -0.00000000E+00
  2 20904 -0.00000000E+00
  2 20906 -0.00000000E+00
  2 20907 -0.00000000E+00
  2 20908 -0.00000000E+00
  2 20909 -0.00000000E+00
  2 20910 -0.00000000E+00
  2 20911 -2.51527842E-03
  2 20912 -2.51527842E-03
  2 20913 -3.77291763E-03
  2 20914 -3.77291763E-03
  2 20915 -3.77291763E-03
  2 20916 -3.77291763E-03
  2 20917 -3.77291763E-03
  2 20918 -3.77291763E-03
  2 20919 -0.00000000E+00
  2 20920 -0.00000000E+00
  2 20921 -0.00000000E+00
  2 20922 -3.77291763E-03
  2 20923 -3.77291763E-03
  2 20924 -0.00000000E+00
  2 20925 -3.77291763E-03
  2 21081 -0.00000000E+00
  2 21082 -0.00000000E+00
  2 21083 -0.00000000E+00
  2 21085 -0.00000000E+00
  2 21126 -0.00000000E+00
  2 21127 -0.00000000E+00
  2 21134 -0.00000000E+00
  2 21135 -0.00000000E+00
  2 21154 -0.00000000E+00
  2 21155 -0.00000000E+00
  2 21156 -0.00000000E+00
  2 21157 -3.77291763E-03
  2 21158 -3.77291763E-03
  2 21159 -3.77291763E-03
  2 21160 -3.77291763E-03
  2 21161 -0.00000000E+00
  2 21162 -0.00000000E+00
  2 21214 -0.00000000E+00
  2 21215 -0.00000000E+00
  2 21223 -0.00000000E+00
  2 21224 -0.00000000E+00
  2 21225 -0.00000000E+00
  2 22065 -0.00000000E+00
  2 22193 -0.00000000E+00
  2 22194 -0.00000000E+00
  2 22210 -0.00000000E+00
  2 22215 -1.39597952E-01
  2 22216 -1.25763921E-02
  2 22217 -2.51527842E-03
  2 22218 -3.77291763E-03
  2 22227 -0.00000000E+00
  2 22427 -0.00000000E+00
  2 22432 -1.20733364E-01
  2 22433 -0.00000000E+00
  2 22434 -0.00000000E+00
  2 22509 -0.00000000E+00
  2 22511 -2.01222274E-02
  2 22512 -1.25763921E-03
  2 22513 -0.00000000E+00
  2 22514 -0.00000000E+00
  2 22515 -2.64104234E-02
  2 22557 -3.77291763E-03
  2 22558 -0.00000000E+00
  2 22559 -0.00000000E+00
  2 22592 -3.77291763E-03
  2 22593 -0.00000000E+00
  2 22594 -0.00000000E+00
  2 22622 -3.77291763E-03
  2 22623 -0.00000000E+00
  2 22624 -0.00000000E+00
  2 22650 -3.77291763E-03
  2 22651 -0.00000000E+00
  2 22652 -0.00000000E+00
  2 22678 -0.00000000E+00
  2 22679 -0.00000000E+00
  2 22680 -0.00000000E+00
  2 22691 -0.00000000E+00
  2 22696 -0.00000000E+00
  2 22983 -0.00000000E+00
  2 22988 -0.00000000E+00
  2 22989 -3.77291763E-03
  2 23010 -0.00000000E+00
  2 23014 -0.00000000E+00
  2 23015 -2.51527842E-03
  2 23016 -3.77291763E-03
  2 23056 -0.00000000E+00
  2 23237 -5.03055685E-03
  2 23238 -1.25763921E-03
  2 23246 -0.00000000E+00
  2 23325 -0.00000000E+00
  2 23352 -3.77291763E-03
  2 23354 -0.00000000E+00
  2 23367 -0.00000000E+00
  2 23377 -3.77291763E-03
  2 23379 -0.00000000E+00
  2 23384 -0.00000000E+00
  2 23392 -3.77291763E-03
  2 23394 -0.00000000E+00
  2 23395 -0.00000000E+00
  2 23401 -3.77291763E-03
  2 23403 -0.00000000E+00
  2 23404 -0.00000000E+00
  2 23410 -3.77291763E-03
  2 23412 -0.00000000E+00
  2 23418 -3.77291763E-03
  2 23652 -0.00000000E+00
  2 23653 -0.00000000E+00
  2 23654 -0.00000000E+00
  2 23662 -0.00000000E+00
  2 23663 -0.00000000E+00
  2 23867 -0.00000000E+00
  2 23872 -0.00000000E+00
  2 23941 -0.00000000E+00
  2 23942 -0.00000000E+00
  2 23943 -0.00000000E+00
  2 23944 -0.00000000E+00
  2 24022 -0.00000000E+00
  2 24026 -0.00000000E+00
  2 24027 -0.00000000E+00
  2 24050 -0.00000000E+00
  2 24057 -0.00000000E+00
  2 24058 -0.00000000E+00
  2 24065 -0.00000000E+00
  2 24068 -0.00000000E+00
  2 24069 -0.00000000E+00
  2 24075 -0.00000000E+00
  2 24078 -0.00000000E+00
  2 24079 -0.00000000E+00
  2 24083 -0.00000000E+00
  2 24086 -0.00000000E+00
  2 24087 -0.00000000E+00
  2 24090 -0.00000000E+00
  2 24093 -0.00000000E+00
  2 24095 -0.00000000E+00
  2 24096 -0.00000000E+00
  2 24097 -0.00000000E+00
  2 24322 -0.00000000E+00
  2 24325 -0.00000000E+00
  2 24326 -0.00000000E+00
  2 24329 -0.00000000E+00
  2 24459 -1.00611137E-02
  2 24465 -0.00000000E+00
  2 24488 -0.00000000E+00
  2 24501 -0.00000000E+00
  2 24551 -0.00000000E+00
  2 24565 -0.00000000E+00
  2 24611 -3.77291763E-03
  2 24782 -0.00000000E+00
  2 24783 -0.00000000E+00
  2 24786 -0.00000000E+00
  2 25061 -2.51527842E-03
  2 25124 -0.00000000E+00
  2 25125 -0.00000000E+00
  2 25210 -0.00000000E+00
  2 25235 -2.51527842E-03
  2 25250 -8.80347448E-03
  2 25252 -3.77291763E-03
  2 25405 -0.00000000E+00
  2 25406 -0.00000000E+00
  2 25428 -0.00000000E+00
  2 25479 -0.00000000E+00
  2 25481 -0.00000000E+00
  2 25572 -0.00000000E+00
  2 25591 -0.00000000E+00
  2 25592 -0.00000000E+00
  2 25621 -8.80347448E-03
  2 25622 -0.00000000E+00
  2 25650 -0.00000000E+00
  2 25651 -0.00000000E+00
  2 25660 -8.80347448E-03
  2 25661 -2.51527842E-03
  2 25669 -0.00000000E+00
  2 25670 -0.00000000E+00
  2 25677 -2.51527842E-03
  2 25678 -2.51527842E-03
  2 25682 -0.00000000E+00
  2 25683 -0.00000000E+00
  2 25688 -2.51527842E-03
  2 25689 -2.51527842E-03
  2 25691 -0.00000000E+00
  2 25692 -0.00000000E+00
  2 25695 -2.51527842E-03
  2 25696 -2.51527842E-03
  2 25698 -0.00000000E+00
  2 25896 -1.00611137E-02
  2 25933 -0.00000000E+00
  2 26029 -3.77291763E-03
  2 26030 -0.00000000E+00
  2 26031 -0.00000000E+00
  2 26087 -0.00000000E+00
  2 26094 -0.00000000E+00
  2 26169 -0.00000000E+00
  2 26398 -2.51527842E-03
  2 26399 -2.51527842E-03
  2 26440 -0.00000000E+00
  2 26457 -0.00000000E+00
  2 26744 -0.00000000E+00
  2 26745 -0.00000000E+00
  2 26847 -0.00000000E+00
  2 26848 -0.00000000E+00
  2 26900 -3.77291763E-03
  2 26960 -2.51527842E-03
  2 26961 -2.51527842E-03
  2 27020 -2.51527842E-03
  2 27021 -2.51527842E-03
  2 27288 -0.00000000E+00
  2 27419 -0.00000000E+00
  2 27463 -0.00000000E+00
  2 27868 -0.00000000E+00
  2 27869 -0.00000000E+00
  2 27881 -0.00000000E+00
  2 27976 -0.00000000E+00
  2 28123 -0.00000000E+00
  2 28134 -0.00000000E+00
  2 28200 -3.77291763E-03
  2 28253 -0.00000000E+00
  2 28306 -0.00000000E+00
  2 28372 -0.00000000E+00
  2 28525 -8.80347448E-03
  2 28538 -2.51527842E-03
  2 28539 -2.51527842E-03
  2 28643 -0.00000000E+00
  2 28777 -0.00000000E+00
  2 28832 -0.00000000E+00
  2 28853 -2.51527842E-03
  2 28931 -0.00000000E+00
  2 29172 -0.00000000E+00
  2 29288 -0.00000000E+00
  2 29289 -0.00000000E+00
  2 29290 -0.00000000E+00
  2 29291 -0.00000000E+00
  2 29292 -0.00000000E+00
  2 29293 -0.00000000E+00
  2 29437 -3.77291763E-03
  2 29443 -0.00000000E+00
  2 29444 -0.00000000E+00
  2 29450 -0.00000000E+00
  2 29451 -0.00000000E+00
  2 29454 -0.00000000E+00
  2 29455 -0.00000000E+00
  2 29456 -0.00000000E+00
  2 29457 -0.00000000E+00
  2 29505 -0.00000000E+00
  2 29506 -0.00000000E+00
  2 29518 -0.00000000E+00
  2 29524 -0.00000000E+00
  2 29525 -0.00000000E+00
  2 29528 -0.00000000E+00
  2 29529 -0.00000000E+00
  2 29530 -0.00000000E+00
  2 29531 -0.00000000E+00
  2 29641 -0.00000000E+00
  2 29642 -0.00000000E+00
  2 29645 -0.00000000E+00
  2 29696 -0.00000000E+00
  2 29760 -0.00000000E+00
  2 29821 -0.00000000E+00
  2 29822 -0.00000000E+00
  2 29823 -0.00000000E+00
  2 29824 -0.00000000E+00
  2 29825 -0.00000000E+00
  2 29826 -0.00000000E+00
  2 29827 -0.00000000E+00
  2 29828 -0.00000000E+00
  2 29829 -0.00000000E+00
  2 29830 -0.00000000E+00
  2 29831 -0.00000000E+00
  2 29832 -0.00000000E+00
  2 29921 -0.00000000E+00
  2 29922 -0.00000000E+00
  2 29923 -0.00000000E+00
  2 29924 -0.00000000E+00
  2 29929 -0.00000000E+00
  2 29930 -0.00000000E+00
  2 29931 -0.00000000E+00
  2 29932 -0.00000000E+00
  2 29933 -0.00000000E+00
  2 29934 -0.00000000E+00
  2 29935 -0.00000000E+00
  2 29936 -0.00000000E+00
  2 29985 -0.00000000E+00
  2 29986 -0.00000000E+00
  2 29987 -2.51527842E-03
  2 29988 -2.51527842E-03
  2 29995 -0.00000000E+00
  2 29996 -0.00000000E+00
  2 29997 -0.00000000E+00
  2 29998 -0.00000000E+00
  2 29999 -0.00000000E+00
  2 30000 -0.00000000E+00
  2 30001 -0.00000000E+00
  2 30002 -0.00000000E+00
  2 30039 -2.51527842E-03
  2 30040 -2.51527842E-03
  2 30041 -0.00000000E+00
  2 30042 -0.00000000E+00
  2 30043 -0.00000000E+00
  2 30044 -0.00000000E+00
  2 30045 -0.00000000E+00
  2 30046 -0.00000000E+00
  2 30047 -0.00000000E+00
  2 30048 -0.00000000E+00
  2 30049 -0.00000000E+00
  2 30050 -0.00000000E+00
  2 30051 -0.00000000E+00
  2 30052 -0.00000000E+00
  2 30053 -0.00000000E+00
  2 30054 -0.00000000E+00
  2 30055 -0.00000000E+00
  2 30056 -0.00000000E+00
  2 30057 -0.00000000E+00
  2 30058 -0.00000000E+00
  2 30059 -0.00000000E+00
  2 30060 -0.00000000E+00
  2 30061 -0.00000000E+00
  2 30062 -0.00000000E+00
  2 30143 -0.00000000E+00
  2 30144 -0.00000000E+00
  2 30145 -0.00000000E+00
  2 30146 -0.00000000E+00
  2 30147 -0.00000000E+00
  2 30148 -0.00000000E+00
  2 30149 -0.00000000E+00
  2 30150 -0.00000000E+00
  2 30151 -0.00000000E+00
  2 30152 -0.00000000E+00
  2 30153 -0.00000000E+00
  2 30154 -0.00000000E+00
  2 30155 -0.00000000E+00
  2 30156 -0.00000000E+00
  2 30157 -0.00000000E+00
  2 30158 -0.00000000E+00
  2 30207 -0.00000000E+00
  2 30208 -0.00000000E+00
  2 30209 -0.00000000E+00
  2 30210 -0.00000000E+00
  2 30211 -2.51527842E-03
  2 30212 -2.51527842E-03
  2 30213 -2.51527842E-03
  2 30214 -2.51527842E-03
  2 30215 -0.00000000E+00
  2 30216 -0.00000000E+00
  2 30217 -0.00000000E+00
  2 30218 -0.00000000E+00
  2 30219 -0.00000000E+00
  2 30220 -0.00000000E+00
  2 30221 -0.00000000E+00
  2 30222 -0.00000000E+00
  2 30227 -0.00000000E+00
  2 30228 -0.00000000E+00
  2 30229 -2.51527842E-03
  2 30230 -2.51527842E-03
  2 30231 -0.00000000E+00
  2 30232 -0.00000000E+00
  2 30233 -0.00000000E+00
  2 30234 -0.00000000E+00
  2 30235 -0.00000000E+00
  2 30236 -0.00000000E+00
  2 30237 -0.00000000E+00
  2 30238 -0.00000000E+00
  2 30239 -0.00000000E+00
  2 30240 -0.00000000E+00
  2 30241 -0.00000000E+00
  2 30242 -0.00000000E+00
  2 30243 -0.00000000E+00
  2 30244 -0.00000000E+00
  2 30245 -0.00000000E+00
  2 30246 -0.00000000E+00
  2 30247 -0.00000000E+00
  2 30248 -0.00000000E+00
  2 30249 -0.00000000E+00
  2 30250 -0.00000000E+00
  2 30251 -0.00000000E+00
  2 30252 -0.00000000E+00
  2 30253 -0.00000000E+00
  2 30254 -0.00000000E+00
  2 30255 -0.00000000E+00
  2 30256 -0.00000000E+00
  2 30257 -0.00000000E+00
  2 30258 -0.00000000E+00
  2 30259 -0.00000000E+00
  2 30260 -0.00000000E+00
  2 30261 -0.00000000E+00
  2 30262 -0.00000000E+00
  2 30263 -0.00000000E+00
  2 30264 -0.00000000E+00
  2 30265 -0.00000000E+00
  2 30266 -0.00000000E+00
  2 30267 -0.00000000E+00
  2 30268 -0.00000000E+00
  2 30269 -0.00000000E+00
  2 30270 -0.00000000E+00
  2 30271 -0.00000000E+00
  2 30272 -0.00000000E+00
  2 30273 -0.00000000E+00
  2 30274 -0.00000000E+00
  2 30291 -0.00000000E+00
  2 30292 -0.00000000E+00
  2 30293 -0.00000000E+00
  2 30294 -0.00000000E+00
  2 30295 -0.00000000E+00
  2 30296 -0.00000000E+00
  2 30297 -0.00000000E+00
  2 30298 -0.00000000E+00
  2 30299 -0.00000000E+00
  2 30300 -0.00000000E+00
  2 30301 -0.00000000E+00
  2 30302 -0.00000000E+00
  2 30303 -0.00000000E+00
  2 30304 -0.00000000E+00
  2 30305 -0.00000000E+00
  2 30306 -0.00000000E+00
  2 30339 -0.00000000E+00
  2 30340 -0.00000000E+00
  2 30341 -0.00000000E+00
  2 30342 -0.00000000E+00
  2 30343 -0.00000000E+00
  2 30344 -0.00000000E+00
  2 30345 -0.00000000E+00
  2 30346 -0.00000000E+00
  2 30347 -2.51527842E-03
  2 30348 -2.51527842E-03
  2 30349 -2.51527842E-03
  2 30350 -2.51527842E-03
  2 30351 -2.51527842E-03
  2 30352 -2.51527842E-03
  2 30353 -2.51527842E-03
  2 30354 -2.51527842E-03
  2 30355 -0.00000000E+00
  2 30356 -0.00000000E+00
  2 30357 -0.00000000E+00
  2 30358 -0.00000000E+00
  2 30359 -0.00000000E+00
  2 30360 -0.00000000E+00
  2 30361 -0.00000000E+00
  2 30362 -0.00000000E+00
  2 30363 -0.00000000E+00
  2 30364 -0.00000000E+00
  2 30365 -0.00000000E+00
  2 30366 -0.00000000E+00
  2 30367 -0.00000000E+00
  2 30368 -0.00000000E+00
  2 30369 -0.00000000E+00
  2 30370 -0.00000000E+00
  2 30371 -0.00000000E+00
  2 30372 -0.00000000E+00
  2 30373 -0.00000000E+00
  2 30374 -0.00000000E+00
  2 30375 -0.00000000E+00
  2 30376 -0.00000000E+00
  2 30377 -0.00000000E+00
  2 30378 -0.00000000E+00
  2 30379 -0.00000000E+00
  2 30380 -0.00000000E+00
  2 30381 -0.00000000E+00
  2 30382 -0.00000000E+00
  2 30383 -0.00000000E+00
  2 30384 -0.00000000E+00
  2 30385 -0.00000000E+00
  2 30386 -0.00000000E+00
  2 30403 -0.00000000E+00
  2 30419 -0.00000000E+00
  2 30608 -0.00000000E+00
  2 30625 -0.00000000E+00
  2 30733 -1.00611137E-02
  2 30751 -0.00000000E+00
  2 30752 -0.00000000E+00
  2 30842 -0.00000000E+00
  2 30884 -0.00000000E+00
  2 30906 -0.00000000E+00
  2 30981 -0.00000000E+00
  2 31011 -0.00000000E+00
  2 31012 -0.00000000E+00
  2 31013 -0.00000000E+00
  2 31074 -0.00000000E+00
  2 31086 -0.00000000E+00
  2 31110 -0.00000000E+00
  2 31113 -0.00000000E+00
  2 31114 -0.00000000E+00
  2 31117 -0.00000000E+00
  2 31250 -0.00000000E+00
  2 31257 -3.77291763E-03
  2 31283 -0.00000000E+00
  2 31500 -0.00000000E+00
  2 31559 -0.00000000E+00
  2 31560 -0.00000000E+00
  2 31592 -0.00000000E+00
  2 31656 -0.00000000E+00
  2 31678 -1.00611137E-02
  2 31679 -1.00611137E-02
  2 31721 -0.00000000E+00
  2 31754 -0.00000000E+00
  2 32009 -0.00000000E+00
  2 32051 -2.51527842E-03
  2 32112 -0.00000000E+00
  2 32126 -0.00000000E+00
  2 32127 -0.00000000E+00
  2 32183 -0.00000000E+00
  2 32219 -0.00000000E+00
  2 32330 -0.00000000E+00
  2 32331 -0.00000000E+00
  2 32358 -0.00000000E+00
  2 32388 -0.00000000E+00
  2 32394 -0.00000000E+00
  2 32395 -0.00000000E+00
  2 32482 -0.00000000E+00
  2 32521 -8.80347448E-03
  2 32684 -0.00000000E+00
  2 32685 -0.00000000E+00
  2 32692 -0.00000000E+00
  2 32693 -0.00000000E+00
  2 32707 -0.00000000E+00
  2 32718 -0.00000000E+00
  2 32733 -0.00000000E+00
  2 32737 -0.00000000E+00
  2 32738 -0.00000000E+00
  2 32777 -0.00000000E+00
  2 32778 -0.00000000E+00
  2 32779 -0.00000000E+00
  2 32833 -0.00000000E+00
  2 32834 -0.00000000E+00
  2 32835 -0.00000000E+00
  2 32836 -0.00000000E+00
  2 32837 -0.00000000E+00
  2 32838 -0.00000000E+00
  2 32839 -0.00000000E+00
  2 32840 -0.00000000E+00
  2 32841 -0.00000000E+00
  2 32843 -0.00000000E+00
  2 32844 -0.00000000E+00
  2 32845 -0.00000000E+00
  2 32846 -0.00000000E+00
  2 32847 -0.00000000E+00
  2 32848 -0.00000000E+00
  2 32849 -0.00000000E+00
  2 32850 -0.00000000E+00
  2 32851 -0.00000000E+00
  2 32858 -0.00000000E+00
  2 32860 -0.00000000E+00
  2 32861 -0.00000000E+00
  2 32862 -0.00000000E+00
  2 32863 -0.00000000E+00
  2 32864 -2.51527842E-03
  2 32865 -0.00000000E+00
  2 32866 -0.00000000E+00
  2 32867 -0.00000000E+00
  2 32876 -0.00000000E+00
  2 32877 -0.00000000E+00
  2 32878 -0.00000000E+00
  2 32879 -0.00000000E+00
  2 32891 -0.00000000E+00
  2 32892 -0.00000000E+00
  2 32893 -0.00000000E+00
  2 32894 -0.00000000E+00
  2 32895 -0.00000000E+00
  2 32896 -0.00000000E+00
  2 32897 -0.00000000E+00
  2 32898 -0.00000000E+00
  2 32899 -0.00000000E+00
  2 32900 -0.00000000E+00
  2 32901 -0.00000000E+00
  2 32902 -0.00000000E+00
  2 32903 -0.00000000E+00
  2 32904 -0.00000000E+00
  2 32905 -0.00000000E+00
  2 32906 -0.00000000E+00
  2 32907 -0.00000000E+00
  2 32908 -0.00000000E+00
  2 32909 -0.00000000E+00
  2 32910 -0.00000000E+00
  2 32911 -0.00000000E+00
  2 32912 -0.00000000E+00
  2 32913 -0.00000000E+00
  2 32914 -0.00000000E+00
  2 32915 -0.00000000E+00
  2 32916 -0.00000000E+00
  2 32917 -2.51527842E-03
  2 32918 -2.51527842E-03
  2 32919 -0.00000000E+00
  2 32920 -0.00000000E+00
  2 32922 -0.00000000E+00
  2 32923 -0.00000000E+00
  2 32924 -0.00000000E+00
  2 32925 -0.00000000E+00
  2 33519 -0.00000000E+00
  2 33681 -2.51527842E-03
  2 34411 -0.00000000E+00
  2 34462 -1.25763921E-03
  2 34467 -0.00000000E+00
  2 34496 -2.51527842E-02
  2 34516 -0.00000000E+00
  2 34685 -0.00000000E+00
  2 34923 -2.51527842E-03
  2 34950 -1.76069490E-02
  2 34951 -1.13187529E-02
  2 35026 -0.00000000E+00
  2 35040 -0.00000000E+00
  2 35041 -0.00000000E+00
  2 35042 -0.00000000E+00
  2 35043 -0.00000000E+00
  2 35044 -2.51527842E-03
  2 35176 -0.00000000E+00
  2 35220 -0.00000000E+00
  2 35258 -6.28819606E-03
  2 35807 -1.25763921E-03
  2 35876 -0.00000000E+00
  2 35882 -0.00000000E+00
  2 35883 -0.00000000E+00
  2 35884 -6.28819606E-03
  2 35886 -0.00000000E+00
  2 35887 -0.00000000E+00
  2 35888 -0.00000000E+00
  2 35889 -0.00000000E+00
  2 35890 -0.00000000E+00
  2 35891 -0.00000000E+00
  2 35892 -1.25763921E-03
  2 35893 -0.00000000E+00
  2 36057 -0.00000000E+00
  2 36216 -0.00000000E+00
  2 36224 -0.00000000E+00
  2 36350 -0.00000000E+00
  2 36986 -0.00000000E+00
  2 37388 -1.25763921E-03
  2 37389 -6.28819606E-03
  2 37452 -2.51527842E-03
  2 37474 -1.25763921E-03
  2 37486 -0.00000000E+00
  2 37492 -0.00000000E+00
  2 37611 -0.00000000E+00
  2 37638 -1.25763921E-03
  2 37639 -0.00000000E+00
  2 37743 -0.00000000E+00
  2 37788 -1.25763921E-03
  2 37969 -8.80347448E-03
  2 38029 -0.00000000E+00
  2 38061 -1.25763921E-03
  2 38077 -1.25763921E-03
  2 38079 -0.00000000E+00
  2 38087 -0.00000000E+00
  2 38108 -0.00000000E+00
  2 38113 -0.00000000E+00
  2 38178 -0.00000000E+00
  2 38179 -1.25763921E-03
  2 38184 -0.00000000E+00
  2 38185 -0.00000000E+00
  2 38205 -1.63493097E-02
  2 38206 -1.25763921E-03
  2 38511 -0.00000000E+00
  2 38524 -1.00611137E-02
  2 38778 -0.00000000E+00
  2 38779 -0.00000000E+00
  2 38780 -0.00000000E+00
  2 38788 -7.54583527E-03
  2 38805 -0.00000000E+00
  2 38836 -0.00000000E+00
  2 38841 -1.25763921E-03
  2 38852 -2.51527842E-03
  2 38857 -0.00000000E+00
  2 38875 -0.00000000E+00
  2 38912 -0.00000000E+00
  2 38940 -0.00000000E+00
  2 38941 -3.77291763E-03
  2 38946 -0.00000000E+00
  2 38950 -8.80347448E-03
  2 38951 -0.00000000E+00
  2 38964 -2.36436172E-01
  2 38974 -0.00000000E+00
  2 38975 -0.00000000E+00
  2 38976 -0.00000000E+00
  2 38984 -0.00000000E+00
  2 38985 -0.00000000E+00
  2 38986 -1.25763921E-03
  2 38987 -6.28819606E-03
  2 38993 -0.00000000E+00
  2 39021 -5.03055685E-02
  2 39022 -1.00611137E-02
  2 39050 -0.00000000E+00
  2 39052 -0.00000000E+00
  2 39054 -0.00000000E+00
  2 39081 -2.51527842E-03
  2 39084 -0.00000000E+00
  2 39096 -0.00000000E+00
  2 39100 -3.64715371E-02
  2 39110 -3.77291763E-03
  2 39111 -0.00000000E+00
  2 39112 -0.00000000E+00
  2 39116 -0.00000000E+00
  2 39117 -1.76069490E-02
  2 39118 -1.25763921E-03
  2 39119 -1.25763921E-03
  2 39120 -1.25763921E-03
  2 39122 -0.00000000E+00
  2 39166 -0.00000000E+00
  2 39167 -0.00000000E+00
  2 39168 -0.00000000E+00
  2 39169 -0.00000000E+00
  2 39170 -0.00000000E+00
  2 39171 -0.00000000E+00
  2 39172 -0.00000000E+00
  2 39173 -1.25763921E-03
  2 39174 -0.00000000E+00
  2 39175 -1.25763921E-03
  2 39195 -5.98636265E-01
  2 39196 -0.00000000E+00
  2 39197 -0.00000000E+00
  2 39198 -0.00000000E+00
  2 39199 -0.00000000E+00
  2 39200 -0.00000000E+00
  2 39201 -0.00000000E+00
  2 39202 -1.63493097E-02
  2 39203 -0.00000000E+00
  2 39219 -0.00000000E+00
  2 39220 -0.00000000E+00
  2 39221 -0.00000000E+00
  2 39226 -0.00000000E+00
  2 39227 -0.00000000E+00
  2 39228 -1.25763921E-03
  2 39229 -1.25763921E-03
  2 39230 -0.00000000E+00
  2 39231 -6.28819606E-02
  2 39232 -0.00000000E+00
  2 39239 -1.13187529E-02
  2 39240 -0.00000000E+00
  2 39241 -3.77291763E-03
  2 39242 -2.51527842E-03
  2 39243 -0.00000000E+00
  2 39244 -0.00000000E+00
  2 39245 -0.00000000E+00
  2 39249 -1.25763921E-03
  2 39250 -0.00000000E+00
  2 39251 -1.25763921E-03
  2 39252 -2.89257019E-02
  2 39253 -3.77291763E-03
  2 39254 -0.00000000E+00
  2 39264 -0.00000000E+00
  2 39266 -1.25763921E-03
  2 39267 -0.00000000E+00
  2 39268 -0.00000000E+00
  2 39269 -1.38340313E-02
  2 39270 -0.00000000E+00
  2 39271 -0.00000000E+00
  2 39296 -0.00000000E+00
  2 39297 -0.00000000E+00
  2 39314 -0.00000000E+00
  2 39318 -0.00000000E+00
  2 39353 -0.00000000E+00
  2 39444 -0.00000000E+00
  2 39445 -0.00000000E+00
  2 39471 -0.00000000E+00
  2 39472 -3.77291763E-03
  2 39514 -0.00000000E+00
  2 39827 -7.54583527E-03
  2 39829 -8.74059252E-01
  2 8796 -6.20912228E-04
  2 8797 -6.20912228E-04
  2 8798 -6.20912228E-04
  2 8799 -1.17973323E-02
  2 8800 -1.17973323E-02
  2 8801 -6.83003451E-03
  2 8802 -6.83003451E-03
  2 8803 -8.38231508E-03
  2 8804 -1.11764201E-02
  2 8805 -1.11764201E-02
  2 8806 -1.11764201E-02
  2 8807 -1.11764201E-02
  2 8808 -1.58332618E-02
  2 8809 -1.58332618E-02
  2 8810 -1.58332618E-02
  2 8811 -1.58332618E-02
  2 8812 -4.34638559E-03
  2 8813 -4.34638559E-03
  2 8814 -9.31368342E-04
  2 8815 -9.31368342E-04
  2 8816 -9.31368342E-04
  2 8846 -4.65684171E-03
  2 8847 -4.65684171E-03
  2 8848 -4.65684171E-03
  2 8849 -2.17319280E-03
  2 8850 -2.17319280E-03
  2 8851 -2.17319280E-03
  2 8852 -9.31368342E-04
  2 8853 -1.11764201E-02
  2 8854 -1.11764201E-02
  2 8855 -1.11764201E-02
  2 8856 -1.17973323E-02
  2 8857 -0.00000000E+00
  2 8858 -0.00000000E+00
  2 8859 -0.00000000E+00
  2 8989 -0.00000000E+00
  2 9163 -1.55228057E-03
  2 9164 -1.55228057E-03
  2 9165 -1.55228057E-03
  2 9166 -4.96729782E-03
  2 9167 -4.96729782E-03
  2 9168 -0.00000000E+00
  2 9169 -0.00000000E+00
  2 9170 -0.00000000E+00
  2 9171 -2.79410503E-03
  2 9172 -2.79410503E-03
  2 9173 -2.79410503E-03
  2 9174 -6.20912228E-04
  2 9175 -4.96729782E-03
  2 9176 -4.96729782E-03
  2 9177 -4.96729782E-03
  2 9178 -6.20912228E-04
  2 9342 -0.00000000E+00
  2 9343 -0.00000000E+00
  2 9344 -0.00000000E+00
  2 9345 -0.00000000E+00
  2 9346 -1.55228057E-03
  2 9378 -9.31368342E-04
  2 9379 -9.31368342E-04
  2 9380 -3.10456114E-04
  2 9383 -3.10456114E-04
  2 9384 -3.10456114E-04
  2 9385 -3.10456114E-04
  2 9386 -0.00000000E+00
  2 9387 -0.00000000E+00
  2 9388 -0.00000000E+00
  2 9389 -0.00000000E+00