# File generated by Flopy version 3.9.1 on 02/10/2026 at 00:17:08.
BEGIN options
  SAVE_FLOWS
END options

BEGIN packages
  DISV6  voronoi_caseD.disv  disv
  IC6  voronoi_caseD.ic  ic
  CHD6  voronoi_caseD.chd  chd
  NPF6  voronoi_caseD.npf  npf
  WEL6  voronoi_caseD.wel  well_package
  RCH6  voronoi_caseD.rch  rch
  EVT6  voronoi_caseD.evt  evt
  OC6  voronoi_caseD.oc  oc
END packages

