# File generated by Flopy version 3.9.1 on 04/10/2026 at 20:26:00.
BEGIN options
  BUDGET  FILEOUT  quadtree_caseD.cbc
  HEAD  FILEOUT  quadtree_caseD.hds
END options

BEGIN period  1
  SAVE  HEAD  LAST
  SAVE  BUDGET  LAST
  PRINT  BUDGET  LAST
END period  1

