# File generated by Flopy version 3.9.1 on 04/10/2026 at 20:25:52.
BEGIN options
  SAVE_FLOWS
END options

BEGIN dimensions
  MAXBOUND  151408
END dimensions

BEGIN period  1
  257671 -1.85081852E-04
  257672 -1.85081852E-04
  257673 -2.25799859E-03
  257674 -1.33258933E-03
  257675 -1.85081852E-04
  257676 -4.81212815E-04
  257677 -3.33147334E-04
  258424 -0.00000000E+00
  258430 -0.00000000E+00
  258433 -0.00000000E+00
  258435 -0.00000000E+00
  258436 -0.00000000E+00
  258478 -5.55245556E-04
  258479 -3.70163704E-04
  258481 -3.70163704E-04
  258482 -3.70163704E-04
  258483 -7.03311038E-04
  258484 -3.70163704E-04
  258485 -7.03311038E-04
  259209 -0.00000000E+00
  259210 -0.00000000E+00
  259211 -0.00000000E+00
  259212 -0.00000000E+00
  259217 -0.00000000E+00
  259218 -0.00000000E+00
  259219 -0.00000000E+00
  259220 -2.96130963E-04
  259221 -0.00000000E+00
  259223 -0.00000000E+00
  259224 -0.00000000E+00
  259229 -0.00000000E+00
  259230 -0.00000000E+00
  259231 -2.96130963E-04
  259232 -2.96130963E-04
  259233 -0.00000000E+00
  259234 -0.00000000E+00
  259235 -0.00000000E+00
  259236 -0.00000000E+00
  259247 -0.00000000E+00
  259278 -4.44196445E-04
  259279 -2.33203134E-03
  259280 -1.07347474E-03
  259281 -4.44196445E-04
  259282 -1.25855659E-03
  259283 -1.07347474E-03
  259284 -3.36848971E-03
  259287 -2.15065112E-02
  259295 -2.22098222E-04
  259296 -3.33147334E-04
  259299 -2.96130963E-04
  259991 -0.00000000E+00
  259992 -2.96130963E-04
  259993 -0.00000000E+00
  259994 -2.96130963E-04
  259999 -0.00000000E+00
  260000 -0.00000000E+00
  260001 -0.00000000E+00
  260002 -0.00000000E+00
  260003 -2.96130963E-04
  260004 -2.96130963E-04
  260005 -2.96130963E-04
  260006 -2.96130963E-04
  260007 -0.00000000E+00
  260008 -0.00000000E+00
  260009 -0.00000000E+00
  260010 -0.00000000E+00
  260011 -0.00000000E+00
  260012 -0.00000000E+00
  260013 -0.00000000E+00
  260014 -0.00000000E+00
  260015 -0.00000000E+00
  260016 -0.00000000E+00
  260017 -0.00000000E+00
  260018 -0.00000000E+00
  260019 -0.00000000E+00
  260020 -0.00000000E+00
  260021 -0.00000000E+00
  260022 -0.00000000E+00
  260025 -0.00000000E+00
  260027 -0.00000000E+00
  260028 -0.00000000E+00
  260029 -0.00000000E+00
  260030 -0.00000000E+00
  260031 -0.00000000E+00
  260032 -0.00000000E+00
  260033 -0.00000000E+00
  260034 -0.00000000E+00
  260068 -6.03366837E-03
  260074 -2.96130963E-04
  260076 -2.96130963E-04
  260077 -2.33203134E-03
  260078 -1.07347474E-03
  260079 -1.45104172E-02
  260080 -2.58004102E-02
  260081 -1.07347474E-03
  260082 -3.36848971E-03
  260083 -2.58004102E-02
  260084 -8.83580761E-02
  260085 -2.15065112E-02
  260087 -7.29222497E-03
  260088 -2.48009682E-03
  260090 -2.22098222E-04
  260091 -7.40327408E-04
  260092 -3.33147334E-04
  260093 -2.22098222E-04
  260094 -3.33147334E-04
  260095 -3.33147334E-04
  260096 -7.40327408E-05
  260097 -2.96130963E-04
  260796 -0.00000000E+00
  260797 -0.00000000E+00
  260808 -0.00000000E+00
  260809 -0.00000000E+00
  260811 -0.00000000E+00
  260812 -0.00000000E+00
  260813 -0.00000000E+00
  260814 -0.00000000E+00
  260815 -0.00000000E+00
  260821 -0.00000000E+00
  260824 -0.00000000E+00
  260825 -0.00000000E+00
  260826 -0.00000000E+00
  260827 -0.00000000E+00
  260828 -0.00000000E+00
  260829 -0.00000000E+00
  260830 -0.00000000E+00
  260831 -0.00000000E+00
  260832 -0.00000000E+00
  260833 -0.00000000E+00
  260834 -0.00000000E+00
  260835 -0.00000000E+00
  260836 -0.00000000E+00
  260837 -0.00000000E+00
  260838 -0.00000000E+00
  260839 -0.00000000E+00
  260850 -0.00000000E+00
  260851 -1.85081852E-04
  260869 -0.00000000E+00
  260870 -0.00000000E+00
  260871 -0.00000000E+00
  260874 -2.96130963E-04
  260875 -2.96130963E-04
  260876 -2.96130963E-04
  260877 -2.96130963E-04
  260878 -1.03645837E-03
  260879 -1.03645837E-03
  260880 -2.96130963E-04
  260881 -2.96130963E-04
  260882 -2.96130963E-04
  260883 -2.96130963E-04
  260884 -1.03645837E-03
  260885 -1.03645837E-03
  260886 -1.03645837E-03
  260887 -1.03645837E-03
  260888 -1.45104172E-02
  260889 -2.58004102E-02
  260890 -1.03645837E-03
  260891 -1.96186763E-03
  260892 -1.03645837E-03
  260893 -1.96186763E-03
  260894 -1.96186763E-03
  260895 -3.18340785E-02
  260896 -1.96186763E-03
  260897 -3.18340785E-02
  260898 -2.58004102E-02
  260899 -8.83580761E-02
  260900 -3.18340785E-02
  260901 -9.46138427E-02
  260902 -7.29222497E-03
  260903 -2.48009682E-03
  260904 -2.57263774E-02
  260905 -8.25465060E-03
  260906 -7.40327408E-04
  260907 -3.33147334E-04
  260908 -7.40327408E-04
  260909 -3.33147334E-04
  260910 -3.33147334E-04
  260911 -7.40327408E-05
  260912 -3.33147334E-04
  260913 -7.40327408E-05
  260916 -4.81212815E-04
  261617 -0.00000000E+00
  261620 -0.00000000E+00
  261621 -0.00000000E+00
  261622 -0.00000000E+00
  261623 -0.00000000E+00
  261629 -0.00000000E+00
  261632 -0.00000000E+00
  261633 -1.11049111E-04
  261634 -0.00000000E+00
  261635 -1.11049111E-04
  261636 -1.11049111E-04
  261637 -1.85081852E-04
  261638 -1.11049111E-04
  261639 -1.85081852E-04
  261640 -0.00000000E+00
  261641 -1.11049111E-04
  261643 -7.40327408E-05
  261644 -1.11049111E-04
  261645 -1.85081852E-04
  261646 -7.40327408E-05
  261647 -0.00000000E+00
  261648 -1.85081852E-04
  261649 -0.00000000E+00
  261650 -1.85081852E-04
  261651 -0.00000000E+00
  261652 -0.00000000E+00
  261653 -0.00000000E+00
  261654 -0.00000000E+00
  261655 -0.00000000E+00
  261656 -1.85081852E-04
  261657 -0.00000000E+00
  261658 -0.00000000E+00
  261659 -0.00000000E+00
  261660 -0.00000000E+00
  261661 -0.00000000E+00
  261662 -0.00000000E+00
  261663 -0.00000000E+00
  261664 -0.00000000E+00
  261665 -0.00000000E+00
  261666 -0.00000000E+00
  261667 -0.00000000E+00
  261668 -2.59114593E-04
  261669 -2.59114593E-04
  261670 -2.59114593E-04
  261671 -2.59114593E-04
  261672 -0.00000000E+00
  261673 -0.00000000E+00
  261674 -0.00000000E+00
  261675 -0.00000000E+00
  261676 -2.59114593E-04
  261677 -2.59114593E-04
  261678 -7.03311038E-04
  261679 -7.03311038E-04
  261680 -2.59114593E-04
  261681 -1.77678578E-03
  261682 -2.59114593E-04
  261683 -1.77678578E-03
  261684 -1.77678578E-03
  261685 -3.10937511E-03
  261686 -1.77678578E-03
  261687 -3.10937511E-03
  261688 -2.59114593E-04
  261689 -1.77678578E-03
  261690 -7.03311038E-04
  261691 -1.77678578E-03
  261692 -1.77678578E-03
  261693 -3.10937511E-03
  261694 -1.77678578E-03
  261695 -4.93058054E-02
  261696 -3.10937511E-03
  261697 -3.99776800E-02
  261698 -3.10937511E-03
  261699 -3.99776800E-02
  261700 -4.93058054E-02
  261701 -3.99776800E-02
  261702 -3.99776800E-02
  261703 -2.57263774E-02
  261704 -8.25465060E-03
  261705 -2.57263774E-02
  261706 -8.25465060E-03
  261707 -5.92261926E-04
  261708 -9.62425630E-04
  261709 -5.92261926E-04
  261710 -9.62425630E-04
  261711 -9.62425630E-04
  261712 -3.70163704E-04
  261713 -9.62425630E-04
  261714 -3.70163704E-04
  261715 -0.00000000E+00
  262466 -7.40327408E-05
  262467 -0.00000000E+00
  262469 -0.00000000E+00
  262475 -0.00000000E+00
  262477 -0.00000000E+00
  262478 -0.00000000E+00
  262479 -0.00000000E+00
  262480 -0.00000000E+00
  262481 -0.00000000E+00
  262482 -0.00000000E+00
  262483 -0.00000000E+00
  262484 -0.00000000E+00
  262485 -0.00000000E+00
  262486 -0.00000000E+00
  262487 -0.00000000E+00
  262488 -0.00000000E+00
  262489 -0.00000000E+00
  262490 -0.00000000E+00
  262491 -0.00000000E+00
  262492 -0.00000000E+00
  262493 -0.00000000E+00
  262494 -0.00000000E+00
  262495 -0.00000000E+00
  262496 -0.00000000E+00
  262497 -0.00000000E+00
  262498 -7.03311038E-04
  262499 -7.03311038E-04
  262500 -7.03311038E-04
  262501 -7.03311038E-04
  262502 -0.00000000E+00
  262503 -0.00000000E+00
  262504 -0.00000000E+00
  262505 -0.00000000E+00
  262506 -7.03311038E-04
  262507 -7.03311038E-04
  262508 -7.03311038E-04
  262509 -7.03311038E-04
  262510 -7.03311038E-04
  262511 -1.77678578E-03
  262512 -7.03311038E-04
  262513 -1.77678578E-03
  262514 -1.77678578E-03
  262515 -4.93058054E-02
  262516 -1.77678578E-03
  262517 -4.93058054E-02
  262518 -7.03311038E-04
  262519 -3.84970252E-03
  262520 -7.03311038E-04
  262521 -3.84970252E-03
  262522 -3.84970252E-03
  262523 -7.14415949E-03
  262524 -3.84970252E-03
  262525 -7.14415949E-03
  262526 -4.93058054E-02
  262527 -3.99776800E-02
  262528 -4.93058054E-02
  262529 -3.99776800E-02
  262530 -3.99776800E-02
  262531 -3.99776800E-02
  262532 -3.99776800E-02
  262533 -3.99776800E-02
  262534 -7.14415949E-03
  262535 -1.81380215E-03
  262536 -7.14415949E-03
  262537 -1.81380215E-03
  262538 -1.81380215E-03
  262539 -1.81380215E-03
  262540 -1.81380215E-03
  262541 -1.81380215E-03
  262542 -2.96130963E-02
  262543 -3.62760430E-03
  262544 -2.07291674E-03
  262545 -2.07291674E-03
  262546 -2.07291674E-03
  262547 -2.07291674E-03
  262548 -8.88392890E-04
  262549 -9.25409260E-04
  262550 -7.03311038E-04
  262551 -2.48009682E-03
  262552 -2.33203134E-03
  263212 -7.40327408E-05
  263223 -1.11049111E-04
  263224 -1.11049111E-04
  263322 -0.00000000E+00
  263323 -0.00000000E+00
  263324 -0.00000000E+00
  263329 -0.00000000E+00
  263330 -0.00000000E+00
  263331 -0.00000000E+00
  263332 -0.00000000E+00
  263333 -0.00000000E+00
  263334 -0.00000000E+00
  263335 -0.00000000E+00
  263336 -0.00000000E+00
  263337 -0.00000000E+00
  263338 -0.00000000E+00
  263339 -0.00000000E+00
  263340 -0.00000000E+00
  263341 -0.00000000E+00
  263342 -0.00000000E+00
  263343 -0.00000000E+00
  263344 -0.00000000E+00
  263345 -0.00000000E+00
  263346 -0.00000000E+00
  263347 -0.00000000E+00
  263348 -0.00000000E+00
  263349 -0.00000000E+00
  263350 -0.00000000E+00
  263351 -1.11049111E-04
  263352 -1.11049111E-04
  263353 -7.03311038E-04
  263354 -7.03311038E-04
  263355 -1.11049111E-04
  263356 -1.11049111E-04
  263357 -1.11049111E-04
  263358 -1.11049111E-04
  263359 -1.11049111E-04
  263360 -1.11049111E-04
  263361 -1.11049111E-04
  263362 -1.11049111E-04
  263363 -1.11049111E-04
  263364 -1.11049111E-04
  263365 -7.03311038E-04
  263366 -3.84970252E-03
  263367 -1.11049111E-04
  263368 -4.59002993E-03
  263369 -3.84970252E-03
  263370 -7.14415949E-03
  263371 -4.59002993E-03
  263372 -9.25409260E-04
  263373 -1.11049111E-04
  263374 -4.59002993E-03
  263375 -1.11049111E-04
  263376 -4.59002993E-03
  263377 -4.59002993E-03
  263378 -9.25409260E-04
  263379 -4.59002993E-03
  263380 -9.25409260E-04
  263381 -7.14415949E-03
  263382 -1.81380215E-03
  263383 -9.25409260E-04
  263384 -8.14360149E-04
  263385 -1.81380215E-03
  263386 -1.81380215E-03
  263387 -8.14360149E-04
  263388 -8.14360149E-04
  263389 -9.25409260E-04
  263390 -8.14360149E-04
  263391 -9.25409260E-04
  263392 -8.14360149E-04
  263393 -8.14360149E-04
  263394 -8.14360149E-04
  263395 -8.14360149E-04
  263396 -8.14360149E-04
  263397 -2.07291674E-03
  263398 -2.07291674E-03
  263399 -6.29278297E-04
  263400 -6.29278297E-04
  263401 -8.88392890E-04
  263402 -8.88392890E-04
  263403 -2.96130963E-04
  263404 -2.96130963E-04
  263405 -6.29278297E-04
  263406 -6.29278297E-04
  263407 -6.29278297E-04
  263408 -6.29278297E-04
  263409 -2.96130963E-04
  263410 -2.96130963E-04
  263411 -2.96130963E-04
  263412 -2.96130963E-04
  263413 -2.48009682E-03
  263414 -2.33203134E-03
  263415 -7.40327408E-05
  263416 -2.22098222E-04
  263417 -2.33203134E-03
  263419 -2.22098222E-04
  264063 -0.00000000E+00
  264074 -7.40327408E-05
  264075 -7.40327408E-05
  264076 -7.40327408E-05
  264077 -7.40327408E-05
  264078 -1.11049111E-04
  264079 -1.11049111E-04
  264080 -1.11049111E-04
  264081 -1.11049111E-04
  264082 -7.40327408E-05
  264083 -7.40327408E-05
  264084 -0.00000000E+00
  264085 -0.00000000E+00
  264086 -1.11049111E-04
  264087 -1.11049111E-04
  264088 -0.00000000E+00
  264089 -0.00000000E+00
  264092 -1.11049111E-04
  264093 -7.40327408E-05
  264096 -7.40327408E-05
  264097 -1.48065482E-04
  264098 -1.11049111E-04
  264099 -7.40327408E-05
  264100 -0.00000000E+00
  264101 -1.11049111E-04
  264102 -1.48065482E-04
  264105 -1.48065482E-04
  264106 -0.00000000E+00
  264111 -1.48065482E-04
  264112 -0.00000000E+00
  264113 -0.00000000E+00
  264114 -0.00000000E+00
  264115 -0.00000000E+00
  264116 -0.00000000E+00
  264117 -0.00000000E+00
  264118 -0.00000000E+00
  264121 -0.00000000E+00
  264122 -1.11049111E-04
  264155 -0.00000000E+00
  264156 -0.00000000E+00
  264157 -0.00000000E+00
  264158 -0.00000000E+00
  264162 -0.00000000E+00
  264163 -0.00000000E+00
  264164 -0.00000000E+00
  264165 -0.00000000E+00
  264166 -2.59114593E-04
  264167 -0.00000000E+00
  264168 -0.00000000E+00
  264169 -0.00000000E+00
  264170 -0.00000000E+00
  264171 -0.00000000E+00
  264172 -0.00000000E+00
  264173 -0.00000000E+00
  264174 -0.00000000E+00
  264175 -0.00000000E+00
  264176 -0.00000000E+00
  264177 -2.59114593E-04
  264178 -1.11049111E-04
  264179 -0.00000000E+00
  264180 -0.00000000E+00
  264181 -1.11049111E-04
  264182 -1.11049111E-04
  264183 -1.11049111E-03
  264184 -1.11049111E-03
  264185 -1.11049111E-03
  264186 -1.11049111E-03
  264187 -5.03422637E-03
  264188 -5.03422637E-03
  264189 -5.03422637E-03
  264190 -5.03422637E-03
  264191 -1.11049111E-03
  264192 -1.11049111E-03
  264193 -8.51376519E-04
  264194 -8.51376519E-04
  264195 -5.03422637E-03
  264196 -5.03422637E-03
  264197 -1.48065482E-04
  264198 -1.48065482E-04
  264199 -5.03422637E-03
  264200 -2.99832600E-03
  264201 -5.03422637E-03
  264202 -2.99832600E-03
  264203 -2.99832600E-03
  264204 -7.77343778E-04
  264205 -2.99832600E-03
  264206 -7.77343778E-04
  264207 -5.03422637E-03
  264208 -2.99832600E-03
  264209 -1.48065482E-04
  264210 -7.40327408E-04
  264211 -2.99832600E-03
  264212 -7.77343778E-04
  264213 -7.40327408E-04
  264214 -1.85081852E-04
  264215 -7.77343778E-04
  264216 -0.00000000E+00
  264217 -7.77343778E-04
  264218 -0.00000000E+00
  264219 -0.00000000E+00
  264220 -0.00000000E+00
  264221 -0.00000000E+00
  264222 -0.00000000E+00
  264223 -7.77343778E-04
  264224 -0.00000000E+00
  264225 -1.85081852E-04
  264226 -0.00000000E+00
  264227 -0.00000000E+00
  264228 -0.00000000E+00
  264229 -0.00000000E+00
  264230 -0.00000000E+00
  264231 -0.00000000E+00
  264232 -0.00000000E+00
  264233 -0.00000000E+00
  264234 -0.00000000E+00
  264235 -2.22098222E-04
  264236 -2.22098222E-04
  264237 -2.22098222E-04
  264238 -2.22098222E-04
  264239 -0.00000000E+00
  264240 -0.00000000E+00
  264241 -0.00000000E+00
  264242 -0.00000000E+00
  264243 -2.22098222E-04
  264244 -2.22098222E-04
  264245 -0.00000000E+00
  264246 -0.00000000E+00
  264247 -2.22098222E-04
  264248 -2.22098222E-04
  264249 -2.22098222E-04
  264250 -2.22098222E-04
  264251 -2.22098222E-04
  264252 -1.11049111E-04
  264253 -2.22098222E-04
  264254 -1.11049111E-04
  264255 -2.22098222E-04
  264256 -2.22098222E-04
  264257 -0.00000000E+00
  264258 -0.00000000E+00
  264259 -2.22098222E-04
  264260 -1.11049111E-04
  264261 -0.00000000E+00
  264262 -6.66294667E-04
  264263 -1.11049111E-04
  264265 -1.11049111E-04
  264869 -0.00000000E+00
  264870 -0.00000000E+00
  264871 -0.00000000E+00
  264872 -0.00000000E+00
  264873 -0.00000000E+00
  264874 -0.00000000E+00
  264875 -0.00000000E+00
  264876 -0.00000000E+00
  264877 -3.70163704E-05
  264878 -3.70163704E-05
  264880 -3.70163704E-05
  264881 -1.11049111E-04
  264882 -1.11049111E-04
  264883 -1.11049111E-04
  264884 -1.11049111E-04
  264885 -0.00000000E+00
  264886 -1.11049111E-04
  264887 -0.00000000E+00
  264888 -1.11049111E-04
  264889 -1.11049111E-04
  264890 -0.00000000E+00
  264891 -1.11049111E-04
  264892 -0.00000000E+00
  264893 -1.11049111E-04
  264894 -1.85081852E-04
  264895 -1.11049111E-04
  264896 -1.85081852E-04
  264897 -1.85081852E-04
  264898 -0.00000000E+00
  264899 -1.85081852E-04
  264900 -0.00000000E+00
  264901 -0.00000000E+00
  264902 -0.00000000E+00
  264903 -0.00000000E+00
  264904 -0.00000000E+00
  264905 -0.00000000E+00
  264906 -0.00000000E+00
  264907 -0.00000000E+00
  264908 -0.00000000E+00
  264909 -0.00000000E+00
  264910 -3.70163704E-05
  264911 -0.00000000E+00
  264912 -3.70163704E-05
  264913 -3.70163704E-05
  264914 -3.70163704E-05
  264915 -3.70163704E-05
  264916 -3.70163704E-05
  264917 -1.11049111E-04
  264918 -1.48065482E-04
  264919 -1.85081852E-04
  264920 -3.33147334E-04
  264930 -3.70163704E-05
  264932 -1.85081852E-04
  264933 -7.40327408E-05
  264936 -2.59114593E-04
  264937 -2.59114593E-04
  264938 -1.85081852E-04
  264939 -1.48065482E-04
  264941 -0.00000000E+00
  264943 -0.00000000E+00
  264944 -0.00000000E+00
  264945 -2.59114593E-04
  264946 -0.00000000E+00
  264947 -2.59114593E-04
  264948 -1.29557296E-03
  264949 -1.29557296E-03
  264950 -4.07180074E-04
  264951 -1.29557296E-03
  264952 -4.07180074E-04
  264953 -2.59114593E-04
  264954 -1.11049111E-04
  264955 -2.59114593E-04
  264956 -1.11049111E-04
  264957 -1.11049111E-04
  264958 -1.11049111E-04
  264959 -1.11049111E-04
  264960 -1.11049111E-04
  264961 -4.07180074E-04
  264962 -7.40327408E-04
  264963 -4.07180074E-04
  264964 -7.40327408E-04
  264965 -7.40327408E-04
  264966 -7.40327408E-04
  264967 -7.40327408E-04
  264968 -7.40327408E-04
  264969 -8.51376519E-04
  264970 -8.51376519E-04
  264971 -8.51376519E-04
  264972 -8.51376519E-04
  264973 -1.48065482E-04
  264974 -1.48065482E-04
  264975 -1.48065482E-04
  264976 -1.48065482E-04
  264977 -1.03645837E-03
  264978 -1.03645837E-03
  264979 -1.03645837E-03
  264980 -1.03645837E-03
  264981 -6.66294667E-04
  264982 -6.66294667E-04
  264983 -6.66294667E-04
  264984 -6.66294667E-04
  264985 -1.48065482E-04
  264986 -7.40327408E-04
  264987 -1.48065482E-04
  264988 -7.40327408E-04
  264989 -7.40327408E-04
  264990 -1.85081852E-04
  264991 -7.40327408E-04
  264992 -1.85081852E-04
  264993 -6.66294667E-04
  264994 -0.00000000E+00
  264995 -6.66294667E-04
  264996 -0.00000000E+00
  264997 -0.00000000E+00
  264998 -0.00000000E+00
  264999 -0.00000000E+00
  265000 -0.00000000E+00
  265001 -1.85081852E-04
  265002 -0.00000000E+00
  265003 -1.85081852E-04
  265004 -0.00000000E+00
  265005 -0.00000000E+00
  265006 -0.00000000E+00
  265007 -0.00000000E+00
  265008 -0.00000000E+00
  265009 -0.00000000E+00
  265010 -0.00000000E+00
  265011 -0.00000000E+00
  265012 -0.00000000E+00
  265013 -0.00000000E+00
  265014 -0.00000000E+00
  265015 -0.00000000E+00
  265016 -0.00000000E+00
  265017 -0.00000000E+00
  265018 -0.00000000E+00
  265019 -0.00000000E+00
  265020 -0.00000000E+00
  265021 -0.00000000E+00
  265022 -0.00000000E+00
  265023 -0.00000000E+00
  265024 -0.00000000E+00
  265025 -0.00000000E+00
  265026 -0.00000000E+00
  265027 -0.00000000E+00
  265028 -0.00000000E+00
  265029 -0.00000000E+00
  265030 -0.00000000E+00
  265031 -0.00000000E+00
  265032 -0.00000000E+00
  265033 -0.00000000E+00
  265034 -0.00000000E+00
  265035 -0.00000000E+00
  265036 -0.00000000E+00
  265037 -0.00000000E+00
  265038 -6.66294667E-04
  265039 -0.00000000E+00
  265040 -6.66294667E-04
  265041 -0.00000000E+00
  265042 -0.00000000E+00
  265043 -0.00000000E+00
  265044 -0.00000000E+00
  265045 -0.00000000E+00
  265046 -5.55245556E-04
  265047 -0.00000000E+00
  265048 -5.55245556E-04
  265049 -6.66294667E-04
  265051 -6.66294667E-04
  265644 -1.11049111E-04
  265645 -1.11049111E-04
  265646 -0.00000000E+00
  265647 -0.00000000E+00
  265652 -0.00000000E+00
  265653 -0.00000000E+00
  265655 -0.00000000E+00
  265656 -1.11049111E-04
  265657 -1.85081852E-04
  265658 -0.00000000E+00
  265659 -3.70163704E-05
  265660 -1.85081852E-04
  265661 -0.00000000E+00
  265662 -3.70163704E-05
  265663 -7.40327408E-05
  265664 -0.00000000E+00
  265665 -3.70163704E-05
  265666 -0.00000000E+00
  265667 -3.70163704E-05
  265668 -3.70163704E-05
  265669 -7.40327408E-05
  265670 -3.70163704E-05
  265671 -7.40327408E-05
  265672 -0.00000000E+00
  265673 -3.70163704E-05
  265674 -7.40327408E-05
  265675 -2.59114593E-04
  265676 -3.70163704E-05
  265677 -3.70163704E-05
  265678 -2.59114593E-04
  265679 -2.59114593E-04
  265680 -7.40327408E-05
  265681 -2.59114593E-04
  265682 -7.40327408E-05
  265683 -2.59114593E-04
  265684 -2.59114593E-04
  265685 -2.59114593E-04
  265686 -2.59114593E-04
  265687 -2.59114593E-04
  265688 -1.85081852E-04
  265689 -1.85081852E-04
  265690 -1.85081852E-04
  265691 -1.85081852E-04
  265692 -3.33147334E-04
  265693 -1.85081852E-04
  265694 -1.85081852E-04
  265695 -1.85081852E-04
  265696 -1.85081852E-04
  265697 -3.33147334E-04
  265698 -3.33147334E-04
  265699 -3.33147334E-04
  265700 -3.33147334E-04
  265701 -1.11049111E-04
  265702 -3.70163704E-05
  265703 -2.96130963E-04
  265704 -1.85081852E-04
  265705 -3.70163704E-05
  265707 -1.85081852E-04
  265708 -2.18396585E-03
  265710 -1.85081852E-04
  265711 -4.44196445E-04
  265712 -3.33147334E-04
  265713 -1.85081852E-04
  265714 -1.48065482E-04
  265715 -1.48065482E-03
  265716 -7.77343778E-04
  265717 -7.77343778E-04
  265718 -7.77343778E-04
  265719 -7.77343778E-04
  265720 -1.29557296E-03
  265721 -1.29557296E-03
  265722 -4.07180074E-04
  265723 -2.29501496E-03
  265724 -3.70163704E-03
  265725 -7.77343778E-04
  265726 -2.29501496E-03
  265727 -7.77343778E-04
  265728 -2.29501496E-03
  265729 -2.29501496E-03
  265730 -3.70163704E-03
  265731 -2.29501496E-03
  265732 -3.70163704E-03
  265733 -4.07180074E-04
  265734 -7.40327408E-04
  265735 -3.70163704E-03
  265736 -1.85081852E-03
  265737 -7.40327408E-04
  265738 -7.40327408E-04
  265739 -1.85081852E-03
  265740 -1.85081852E-03
  265741 -3.70163704E-03
  265742 -1.85081852E-03
  265743 -3.70163704E-03
  265744 -1.85081852E-03
  265745 -1.85081852E-03
  265746 -1.85081852E-03
  265747 -1.85081852E-03
  265748 -1.85081852E-03
  265749 -1.03645837E-03
  265750 -1.03645837E-03
  265751 -1.03645837E-03
  265752 -1.03645837E-03
  265753 -6.66294667E-04
  265754 -6.66294667E-04
  265755 -1.48065482E-04
  265756 -1.48065482E-04
  265757 -1.03645837E-03
  265758 -1.03645837E-03
  265759 -1.03645837E-03
  265760 -1.03645837E-03
  265761 -1.48065482E-04
  265762 -1.48065482E-04
  265763 -1.48065482E-04
  265764 -1.48065482E-04
  265765 -6.66294667E-04
  265766 -0.00000000E+00
  265767 -1.48065482E-04
  265768 -0.00000000E+00
  265769 -0.00000000E+00
  265770 -0.00000000E+00
  265771 -0.00000000E+00
  265772 -0.00000000E+00
  265773 -1.48065482E-04
  265774 -0.00000000E+00
  265775 -1.48065482E-04
  265776 -0.00000000E+00
  265777 -0.00000000E+00
  265778 -0.00000000E+00
  265779 -0.00000000E+00
  265780 -0.00000000E+00
  265781 -0.00000000E+00
  265782 -0.00000000E+00
  265783 -0.00000000E+00
  265784 -0.00000000E+00
  265785 -0.00000000E+00
  265786 -0.00000000E+00
  265787 -0.00000000E+00
  265788 -0.00000000E+00
  265789 -0.00000000E+00
  265790 -0.00000000E+00
  265791 -0.00000000E+00
  265792 -0.00000000E+00
  265793 -0.00000000E+00
  265794 -0.00000000E+00
  265795 -0.00000000E+00
  265796 -0.00000000E+00
  265797 -0.00000000E+00
  265798 -0.00000000E+00
  265799 -2.22098222E-04
  265800 -2.22098222E-04
  265801 -2.22098222E-04
  265802 -2.22098222E-04
  265803 -3.70163704E-05
  265804 -0.00000000E+00
  265805 -0.00000000E+00
  265806 -5.55245556E-04
  265807 -7.40327408E-04
  265809 -7.40327408E-04
  265810 -4.10881711E-03
  266426 -3.70163704E-05
  266427 -7.40327408E-05
  266428 -3.70163704E-05
  266429 -7.40327408E-05
  266434 -3.70163704E-05
  266435 -7.40327408E-05
  266436 -3.70163704E-05
  266437 -7.40327408E-05
  266438 -7.40327408E-05
  266439 -2.59114593E-04
  266440 -7.40327408E-05
  266441 -2.59114593E-04
  266442 -2.59114593E-04
  266443 -2.59114593E-04
  266444 -2.59114593E-04
  266445 -2.59114593E-04
  266446 -7.40327408E-05
  266447 -2.59114593E-04
  266448 -7.40327408E-05
  266449 -2.59114593E-04
  266450 -2.59114593E-04
  266451 -2.59114593E-04
  266452 -2.59114593E-04
  266453 -2.59114593E-04
  266454 -1.85081852E-04
  266455 -1.85081852E-04
  266456 -2.96130963E-04
  266457 -2.96130963E-04
  266458 -3.33147334E-04
  266459 -3.33147334E-04
  266460 -1.85081852E-04
  266461 -1.85081852E-04
  266462 -2.96130963E-04
  266463 -2.96130963E-04
  266464 -2.96130963E-04
  266465 -2.96130963E-04
  266466 -1.85081852E-04
  266467 -1.85081852E-04
  266468 -1.85081852E-04
  266469 -1.85081852E-04
  266470 -2.96130963E-04
  266471 -2.96130963E-04
  266472 -1.11049111E-04
  266473 -1.11049111E-04
  266474 -7.40327408E-05
  266475 -1.11049111E-04
  266476 -1.11049111E-04
  266477 -1.11049111E-04
  266478 -1.11049111E-04
  266479 -7.40327408E-05
  266480 -7.40327408E-05
  266481 -7.40327408E-05
  266482 -7.40327408E-05
  266483 -7.40327408E-05
  266484 -1.11049111E-04
  266485 -2.22098222E-04
  266486 -1.11049111E-04
  266487 -1.11049111E-04
  266488 -1.11049111E-04
  266489 -1.11049111E-04
  266490 -2.22098222E-04
  266491 -2.22098222E-04
  266492 -2.22098222E-04
  266493 -2.22098222E-04
  266494 -3.70163704E-04
  266495 -2.03590037E-03
  266496 -3.70163704E-04
  266497 -3.70163704E-04
  266498 -3.70163704E-04
  266499 -3.70163704E-04
  266500 -2.03590037E-03
  266501 -2.03590037E-03
  266502 -2.03590037E-03
  266503 -2.03590037E-03
  266504 -3.99776800E-03
  266505 -2.29501496E-03
  266506 -3.70163704E-03
  266507 -3.99776800E-03
  266508 -5.18229186E-04
  266509 -2.03590037E-03
  266510 -3.99776800E-03
  266511 -2.03590037E-03
  266512 -3.99776800E-03
  266513 -3.99776800E-03
  266514 -5.18229186E-04
  266515 -3.99776800E-03
  266516 -5.18229186E-04
  266517 -3.70163704E-03
  266518 -1.85081852E-03
  266519 -5.18229186E-04
  266520 -4.44196445E-04
  266521 -1.85081852E-03
  266522 -1.85081852E-03
  266523 -4.44196445E-04
  266524 -4.44196445E-04
  266525 -5.18229186E-04
  266526 -4.44196445E-04
  266527 -5.18229186E-04
  266528 -4.44196445E-04
  266529 -4.44196445E-04
  266530 -4.44196445E-04
  266531 -4.44196445E-04
  266532 -4.44196445E-04
  266533 -1.03645837E-03
  266534 -1.03645837E-03
  266535 -5.92261926E-04
  266536 -5.92261926E-04
  266537 -1.48065482E-04
  266538 -1.48065482E-04
  266539 -0.00000000E+00
  266540 -0.00000000E+00
  266541 -5.92261926E-04
  266542 -5.92261926E-04
  266543 -5.92261926E-04
  266544 -5.92261926E-04
  266545 -0.00000000E+00
  266546 -0.00000000E+00
  266547 -0.00000000E+00
  266548 -0.00000000E+00
  266549 -1.48065482E-04
  266550 -0.00000000E+00
  266551 -0.00000000E+00
  266552 -0.00000000E+00
  266553 -0.00000000E+00
  266554 -0.00000000E+00
  266555 -0.00000000E+00
  266556 -0.00000000E+00
  266557 -0.00000000E+00
  266558 -0.00000000E+00
  266559 -0.00000000E+00
  266560 -0.00000000E+00
  266561 -0.00000000E+00
  266562 -0.00000000E+00
  266563 -0.00000000E+00
  266564 -0.00000000E+00
  266565 -0.00000000E+00
  266566 -0.00000000E+00
  266567 -0.00000000E+00
  266568 -0.00000000E+00
  266569 -0.00000000E+00
  266570 -0.00000000E+00
  266571 -0.00000000E+00
  266572 -0.00000000E+00
  266573 -0.00000000E+00
  266574 -0.00000000E+00
  266575 -0.00000000E+00
  266576 -0.00000000E+00
  266577 -0.00000000E+00
  266578 -0.00000000E+00
  266579 -0.00000000E+00
  266580 -0.00000000E+00
  266581 -2.22098222E-04
  266582 -2.22098222E-04
  266583 -5.18229186E-04
  266584 -5.18229186E-04
  266585 -3.70163704E-04
  266586 -5.18229186E-04
  266587 -5.18229186E-04
  266588 -5.18229186E-04
  266589 -5.18229186E-04
  266590 -3.70163704E-04
  266591 -3.70163704E-04
  266592 -3.70163704E-04
  266593 -3.70163704E-04
  266594 -0.00000000E+00
  266596 -0.00000000E+00
  266597 -0.00000000E+00
  266598 -0.00000000E+00
  266599 -0.00000000E+00
  267195 -3.70163704E-05
  267196 -3.70163704E-05
  267197 -3.70163704E-05
  267198 -3.70163704E-05
  267199 -3.70163704E-05
  267201 -3.70163704E-05
  267203 -0.00000000E+00
  267204 -3.70163704E-05
  267205 -3.70163704E-05
  267206 -0.00000000E+00
  267207 -8.14360149E-04
  267208 -3.70163704E-05
  267209 -7.40327408E-05
  267210 -3.70163704E-05
  267211 -7.40327408E-05
  267212 -7.40327408E-05
  267213 -7.40327408E-05
  267214 -7.40327408E-05
  267215 -7.40327408E-05
  267216 -3.70163704E-05
  267217 -7.40327408E-05
  267218 -8.14360149E-04
  267219 -1.85081852E-04
  267220 -7.40327408E-05
  267221 -7.40327408E-05
  267222 -1.85081852E-04
  267223 -1.85081852E-04
  267224 -7.77343778E-04
  267225 -7.77343778E-04
  267226 -7.77343778E-04
  267227 -7.77343778E-04
  267228 -7.40327408E-05
  267229 -7.40327408E-05
  267230 -7.40327408E-05
  267231 -7.40327408E-05
  267232 -7.77343778E-04
  267233 -7.77343778E-04
  267234 -1.48065482E-04
  267235 -1.48065482E-04
  267236 -7.40327408E-05
  267237 -7.40327408E-05
  267238 -3.70163704E-05
  267239 -3.70163704E-05
  267240 -0.00000000E+00
  267241 -0.00000000E+00
  267242 -0.00000000E+00
  267243 -0.00000000E+00
  267244 -0.00000000E+00
  267245 -0.00000000E+00
  267246 -0.00000000E+00
  267247 -0.00000000E+00
  267248 -0.00000000E+00
  267249 -0.00000000E+00
  267250 -0.00000000E+00
  267251 -0.00000000E+00
  267252 -0.00000000E+00
  267253 -0.00000000E+00
  267254 -0.00000000E+00
  267255 -0.00000000E+00
  267256 -0.00000000E+00
  267257 -3.70163704E-04
  267258 -0.00000000E+00
  267259 -3.70163704E-04
  267260 -3.70163704E-04
  267261 -1.48065482E-04
  267262 -3.70163704E-04
  267263 -1.48065482E-04
  267264 -0.00000000E+00
  267265 -3.70163704E-04
  267266 -0.00000000E+00
  267267 -0.00000000E+00
  267268 -3.70163704E-04
  267269 -1.48065482E-04
  267270 -0.00000000E+00
  267271 -3.70163704E-05
  267272 -1.48065482E-04
  267273 -1.48065482E-04
  267274 -1.48065482E-04
  267275 -1.48065482E-04
  267276 -3.70163704E-05
  267277 -3.70163704E-05
  267278 -3.70163704E-05
  267279 -3.70163704E-05
  267280 -1.48065482E-04
  267281 -1.48065482E-04
  267282 -3.70163704E-05
  267283 -3.70163704E-05
  267284 -3.70163704E-05
  267285 -3.70163704E-05
  267286 -0.00000000E+00
  267287 -0.00000000E+00
  267288 -1.11049111E-04
  267289 -1.11049111E-04
  267290 -1.11049111E-04
  267291 -1.11049111E-04
  267292 -1.85081852E-04
  267293 -1.85081852E-04
  267294 -1.85081852E-04
  267295 -1.85081852E-04
  267296 -1.11049111E-04
  267297 -1.11049111E-04
  267298 -3.70163704E-05
  267299 -3.70163704E-05
  267300 -1.85081852E-04
  267301 -1.85081852E-04
  267302 -1.48065482E-04
  267303 -1.48065482E-04