# File generated by Flopy version 3.9.1 on 04/10/2026 at 20:25:53.
BEGIN options
  FIXED_CELL
  PRINT_FLOWS
  SAVE_FLOWS
END options

BEGIN dimensions
  MAXBOUND  152822
END dimensions

BEGIN period  1
  1 5.71405178E-09
  2 5.71162966E-09
  3 5.72304015E-09
  4 5.73782525E-09
  5 5.75587549E-09
  6 5.80045715E-09
  7 5.73490272E-09
  8 5.70226057E-09
  9 5.70006508E-09
  10 5.70606305E-09
  11 5.68046440E-09
  12 5.67850291E-09
  13 5.66044744E-09
  14 5.65829770E-09
  15 5.63973175E-09
  16 5.68220137E-09
  17 5.66852854E-09
  18 5.65817312E-09
  19 5.67576230E-09
  20 5.67298463E-09
  21 5.65154253E-09
  22 5.64868574E-09
  23 5.64603548E-09
  24 5.63537721E-09
  25 5.62491016E-09
  26 5.61394867E-09
  27 5.62855424E-09
  28 5.62561799E-09
  29 5.60693301E-09
  30 5.60391719E-09
  31 5.67388687E-09
  32 5.67845925E-09
  33 5.64962215E-09
  34 5.65434136E-09
  35 5.68666393E-09
  36 5.69843582E-09
  37 5.66280342E-09
  38 5.67493963E-09
  39 5.62658884E-09
  40 5.63145575E-09
  41 5.60492258E-09
  42 5.60993745E-09
  43 5.64017653E-09
  44 5.65267880E-09
  45 5.61891737E-09
  46 5.63178611E-09
  47 5.71368378E-09
  48 5.73229242E-09
  49 5.69065394E-09
  50 5.70982477E-09
  51 5.75412413E-09
  52 5.77902158E-09
  53 5.73230733E-09
  54 5.75793618E-09
  55 5.66886140E-09
  56 5.68859641E-09
  57 5.64843728E-09
  58 5.66873639E-09
  59 5.71173158E-09
  60 5.73809314E-09
  61 5.69252356E-09
  62 5.71961645E-09
  63 5.80681036E-09
  64 5.83730186E-09
  65 5.78652815E-09
  66 5.81788537E-09
  67 5.87029616E-09
  68 5.90558502E-09
  69 5.85179839E-09
  70 5.88804932E-09
  71 5.76748890E-09
  72 5.79971148E-09
  73 5.74981361E-09
  74 5.78289794E-09
  75 5.83454167E-09
  76 5.87175174E-09
  77 5.81864025E-09
  78 5.85680279E-09
  79 5.92641491E-09
  80 5.96666942E-09
  81 5.91110870E-09
  82 5.95237739E-09
  83 5.89714270E-09
  84 5.93941523E-09
  85 5.99532326E-09
  86 6.03971503E-09
  87 5.98337677E-09
  88 6.02878751E-09
  89 6.08532695E-09
  90 6.07541384E-09
  91 6.16150000E-09
  92 6.21293543E-09
  93 6.26498684E-09
  94 6.31745004E-09
  95 7.17963897E-09
  96 5.86205700E-09
  97 5.71825378E-09
  98 5.70322965E-09
  99 5.76158683E-09
  100 5.79271799E-09
  101 5.75184500E-09
  102 5.72429147E-09
  103 5.68996537E-09
  104 5.71371235E-09
  105 5.67859852E-09
  106 5.68865094E-09
  107 5.66236525E-09
  108 5.67287181E-09
  109 5.64590563E-09
  110 5.63959663E-09
  111 5.62052199E-09
  112 5.62254021E-09
  113 5.60296077E-09
  114 5.65886424E-09
  115 5.63122727E-09
  116 5.64676965E-09
  117 5.61847505E-09
  118 5.60727294E-09
  119 5.58719488E-09
  120 5.59394263E-09
  121 5.57337462E-09
  122 5.60529194E-09
  123 5.59402795E-09
  124 5.58732509E-09
  125 5.57576049E-09
  126 5.58681996E-09
  127 5.58372469E-09
  128 5.56836129E-09
  129 5.56518693E-09
  130 5.57115821E-09
  131 5.55929622E-09
  132 5.55694355E-09
  133 5.54478882E-09
  134 5.55170770E-09
  135 5.54845491E-09
  136 5.53701375E-09
  137 5.53368348E-09
  138 5.58476449E-09
  139 5.58992698E-09
  140 5.56626082E-09
  141 5.57156989E-09
  142 5.59916539E-09
  143 5.61239956E-09
  144 5.58106497E-09
  145 5.59466192E-09
  146 5.54956231E-09
  147 5.55501617E-09
  148 5.53482359E-09
  149 5.54041963E-09
  150 5.56476488E-09
  151 5.57872018E-09
  152 5.55041755E-09
  153 5.56472491E-09
  154 5.62951769E-09
  155 5.65037860E-09
  156 5.61224338E-09
  157 5.63366131E-09
  158 5.67481454E-09
  159 5.70263442E-09
  160 5.65873994E-09
  161 5.68727924E-09
  162 5.59675910E-09
  163 5.61872660E-09
  164 5.58321302E-09
  165 5.60571974E-09
  166 5.64443874E-09
  167 5.67368641E-09
  168 5.63205288E-09
  169 5.66199411E-09
  170 5.73362732E-09
  171 5.76756623E-09
  172 5.71905866E-09
  173 5.75384112E-09
  174 5.80421180E-09
  175 5.84331611E-09
  176 5.79137695E-09
  177 5.83140797E-09
  178 5.70623930E-09
  179 5.74185010E-09
  180 5.69530327E-09
  181 5.73172277E-09
  182 5.78025878E-09
  183 5.82119677E-09
  184 5.77098212E-09
  185 5.81280240E-09
  186 5.88462630E-09
  187 5.92788799E-09
  188 5.87367124E-09
  189 5.91790267E-09
  190 5.97284840E-09
  191 6.01925921E-09
  192 5.96384035E-09
  193 6.01122746E-09
  194 5.86439104E-09
  195 5.90956780E-09
  196 5.85690043E-09
  197 5.90299283E-09
  198 5.95645605E-09
  199 6.03504379E-09
  200 5.95079953E-09
  201 6.02973280E-09
  202 6.10152718E-09
  203 6.15314435E-09
  204 6.09372273E-09
  205 6.14632393E-09
  206 6.20557373E-09
  207 6.25859265E-09
  208 6.19971457E-09
  209 6.25366652E-09
  210 6.08758034E-09
  211 6.14112942E-09
  212 6.08319597E-09
  213 6.13765110E-09
  214 6.19544325E-09
  215 6.25028847E-09
  216 6.19284449E-09
  217 6.24853777E-09
  218 6.31199214E-09
  219 6.36557766E-09
  220 6.30796623E-09
  221 6.36241543E-09
  222 6.41916952E-09
  223 6.47260301E-09
  224 6.41683147E-09
  225 6.47104745E-09
  226 6.30544718E-09
  227 6.36071756E-09
  228 6.30450890E-09
  229 6.36055285E-09
  230 6.41591430E-09
  231 6.47086851E-09
  232 6.41648182E-09
  233 6.47212522E-09
  234 6.52572836E-09
  235 6.57841035E-09
  236 6.52491206E-09
  237 6.57828920E-09
  238 6.63052798E-09
  239 6.68197375E-09
  240 6.63105744E-09
  241 6.68310943E-09
  242 6.52542758E-09
  243 6.57945471E-09
  244 6.52732939E-09
  245 6.58195707E-09
  246 6.63282834E-09
  247 6.68544138E-09
  248 6.63588675E-09
  249 6.68901183E-09
  250 6.73435105E-09
  251 6.78470068E-09
  252 6.83408826E-09
  253 6.88245445E-09
  254 6.73720042E-09
  255 6.78802481E-09
  256 6.74123976E-09
  257 6.79249108E-09
  258 6.83784577E-09
  259 6.88660543E-09
  260 6.84269840E-09
  261 6.89180547E-09
  262 6.92974974E-09
  263 6.97593356E-09
  264 7.02097345E-09
  265 7.06484423E-09
  266 6.93425591E-09
  267 6.98075838E-09
  268 6.93976611E-09
  269 6.98654335E-09
  270 7.02608218E-09
  271 7.07020399E-09
  272 7.03210840E-09
  273 7.07643986E-09
  274 7.10752723E-09
  275 7.14900960E-09
  276 7.18409565E-09
  277 7.18928355E-09
  278 7.22834581E-09
  279 7.11310702E-09
  280 7.15478023E-09
  281 7.11952284E-09
  282 7.16134821E-09
  283 7.19521769E-09
  284 7.23441787E-09
  285 7.20191185E-09
  286 7.24121402E-09
  287 7.26619697E-09
  288 7.30284100E-09
  289 7.32519338E-09
  290 7.35937897E-09
  291 7.27238310E-09
  292 7.29621095E-09
  293 7.27925878E-09
  294 7.30325120E-09
  295 7.33165110E-09
  296 7.36588755E-09
  297 7.33872975E-09
  298 7.37298672E-09
  299 7.39239101E-09
  300 7.42424223E-09
  301 7.45494676E-09
  302 7.48451988E-09
  303 7.39893265E-09
  304 7.43080045E-09
  305 7.40603586E-09
  306 7.43789250E-09
  307 7.46150632E-09
  308 7.49106668E-09
  309 7.46857321E-09
  310 7.49809552E-09
  311 7.51297778E-09
  312 7.54033731E-09
  313 7.57630264E-09
  314 7.51949876E-09
  315 7.54682040E-09
  316 7.52647769E-09
  317 7.55373849E-09
  318 7.57304983E-09
  319 7.59820550E-09
  320 7.57989700E-09
  321 7.60497247E-09
  322 7.62230597E-09
  323 7.64536978E-09
  324 7.62898414E-09
  325 7.65195120E-09
  326 7.67389261E-09
  327 7.69482708E-09
  328 7.72125007E-09
  329 6.05129087E-09
  330 6.16432363E-09
  331 6.08015344E-09
  332 6.02641069E-09
  333 6.08427005E-09
  334 6.02983240E-09
  335 5.92465415E-09
  336 5.97306574E-09
  337 5.92237171E-09
  338 5.87639327E-09
  339 5.83001313E-09
  340 5.87325872E-09
  341 5.82602965E-09
  342 5.97365028E-09
  343 5.92216120E-09
  344 5.97635287E-09
  345 5.92412667E-09
  346 5.87224504E-09
  347 5.82421304E-09
  348 5.87346258E-09
  349 5.82467991E-09
  350 5.78581271E-09
  351 5.74409193E-09
  352 5.78099282E-09
  353 5.73845809E-09
  354 5.70514751E-09
  355 5.66926851E-09
  356 5.69873254E-09
  357 5.66211571E-09
  358 5.77838267E-09
  359 5.73507352E-09
  360 5.77810493E-09
  361 5.73406671E-09
  362 5.69460281E-09
  363 5.65728050E-09
  364 5.69289240E-09
  365 5.65490218E-09
  366 5.63673157E-09
  367 5.60779614E-09
  368 5.62889473E-09
  369 5.59933918E-09
  370 5.58269966E-09
  371 5.56165301E-09
  372 5.57369606E-09
  373 5.55218494E-09
  374 5.62340408E-09
  375 5.59325322E-09
  376 5.62040372E-09
  377 5.58968669E-09
  378 5.56708446E-09
  379 5.54512606E-09
  380 5.56301706E-09
  381 5.54063174E-09
  382 5.54483627E-09
  383 5.53239497E-09
  384 5.53499348E-09
  385 5.52227345E-09
  386 5.52443708E-09
  387 5.52103064E-09
  388 5.51413746E-09
  389 5.51065653E-09
  390 5.52757327E-09
  391 5.51458409E-09
  392 5.52273351E-09
  393 5.50948662E-09
  394 5.50627583E-09
  395 5.50272248E-09
  396 5.50101306E-09
  397 5.49738980E-09
  398 5.52220237E-09
  399 5.52793713E-09
  400 5.51185852E-09
  401 5.51772761E-09
  402 5.53817837E-09
  403 5.55282945E-09
  404 5.52820474E-09
  405 5.54318906E-09
  406 5.50395309E-09
  407 5.50995115E-09
  408 5.49864709E-09
  409 5.50476774E-09
  410 5.52065510E-09
  411 5.53595987E-09
  412 5.51568773E-09
  413 5.53129778E-09
  414 5.57175591E-09
  415 5.59478842E-09
  416 5.56254028E-09
  417 5.58608186E-09
  418 5.62172646E-09
  419 5.65234245E-09
  420 5.61360492E-09
  421 5.64487261E-09
  422 5.55571936E-09
  423 5.57974983E-09
  424 5.55144602E-09
  425 5.57594156E-09
  426 5.60783404E-09
  427 5.63972591E-09
  428 5.60455888E-09
  429 5.63704275E-09
  430 5.68638630E-09
  431 5.72359011E-09
  432 5.67962492E-09
  433 5.71758366E-09
  434 5.76367295E-09
  435 5.80634554E-09
  436 5.75845752E-09
  437 5.80194694E-09
  438 5.67515556E-09
  439 5.71383463E-09
  440 5.67311356E-09
  441 5.71247289E-09
  442 5.75546150E-09
  443 5.79972652E-09
  444 5.75480905E-09
  445 5.79980249E-09
  446 5.85131468E-09
  447 5.89828744E-09
  448 5.84774882E-09
  449 5.89556084E-09
  450 5.94697485E-09
  451 6.02632072E-09
  452 5.97095977E-09
  453 6.02490745E-09
  454 5.84631686E-09
  455 5.89492104E-09
  456 5.84713091E-09
  457 5.91902133E-09
  458 5.97085192E-09
  459 6.02559086E-09
  460 5.97299825E-09
  461 6.02846607E-09
  462 6.08066481E-09
  463 6.13597832E-09
  464 6.08008064E-09
  465 6.13619883E-09
  466 6.19200187E-09
  467 6.24849235E-09
  468 6.19299724E-09
  469 6.25022834E-09
  470 6.08153510E-09
  471 6.13839809E-09
  472 6.08511690E-09
  473 6.14265860E-09
  474 6.19591005E-09
  475 6.25381933E-09
  476 6.20081671E-09
  477 6.25933589E-09
  478 6.30522391E-09
  479 6.36198851E-09
  480 6.30766273E-09
  481 6.36508973E-09
  482 6.41859619E-09
  483 6.47487491E-09
  484 6.42231748E-09
  485 6.47917279E-09
  486 6.31189337E-09
  487 6.36991912E-09
  488 6.31798073E-09
  489 6.37653620E-09
  490 6.42770317E-09
  491 6.48507143E-09
  492 6.43480763E-09
  493 6.49262040E-09
  494 6.53067022E-09
  495 6.58584464E-09
  496 6.53550065E-09
  497 6.59116362E-09
  498 6.64027691E-09
  499 6.69386116E-09
  500 6.64604094E-09
  501 6.70002763E-09
  502 6.54186866E-09
  503 6.59795767E-09
  504 6.54981925E-09
  505 6.60626753E-09
  506 6.65321845E-09
  507 6.70754708E-09
  508 6.66184617E-09
  509 6.71645254E-09
  510 6.74650586E-09
  511 6.79813289E-09
  512 6.75303340E-09
  513 6.80498159E-09
  514 6.84867641E-09
  515 6.89808188E-09
  516 6.85580807E-09
  517 6.90546009E-09
  518 6.76085468E-09
  519 6.81306623E-09
  520 6.76999932E-09
  521 6.82241326E-09
  522 6.86411938E-09
  523 6.91396335E-09
  524 6.87363393E-09
  525 6.92361255E-09
  526 6.94630498E-09
  527 6.99331061E-09
  528 6.95389528E-09
  529 7.00108053E-09
  530 7.03907197E-09
  531 7.08356960E-09
  532 7.04699102E-09
  533 7.09160931E-09
  534 6.96255774E-09
  535 7.00987148E-09
  536 6.97231080E-09
  537 7.01969971E-09
  538 7.05588182E-09
  539 7.10057332E-09
  540 7.06575858E-09
  541 7.11047400E-09
  542 7.12679056E-09
  543 7.16872761E-09
  544 7.13492441E-09
  545 7.17693101E-09
  546 7.20937850E-09
  547 7.24874527E-09
  548 7.21762869E-09
  549 7.25702127E-09
  550 7.14393697E-09
  551 7.18596936E-09
  552 7.15383895E-09
  553 7.19585191E-09
  554 7.22667193E-09
  555 7.26605023E-09
  556 7.23651611E-09
  557 7.26359944E-09
  558 7.27421706E-09
  559 7.31095252E-09
  560 7.28259858E-09
  561 7.31932220E-09
  562 7.34643671E-09
  563 7.38068289E-09
  564 7.35477825E-09
  565 7.38898141E-09
  566 7.29169087E-09
  567 7.32836624E-09
  568 7.30149957E-09
  569 7.33808930E-09
  570 7.36375943E-09
  571 7.39788648E-09
  572 7.37338405E-09
  573 7.40740115E-09
  574 7.41370616E-09
  575 7.44552310E-09
  576 7.42194807E-09
  577 7.45369604E-09
  578 7.47615144E-09
  579 7.50560978E-09
  580 7.48424414E-09
  581 7.51361202E-09
  582 7.43076506E-09
  583 7.46241410E-09
  584 7.44015948E-09
  585 7.47167906E-09
  586 7.49285352E-09
  587 7.52210391E-09
  588 7.50198081E-09
  589 7.53108624E-09
  590 7.53391737E-09
  591 7.56109387E-09
  592 7.54181984E-09
  593 7.56888811E-09
  594 7.58715916E-09
  595 7.61213323E-09
  596 7.59483748E-09
  597 7.61968863E-09
  598 7.55018632E-09
  599 7.57712204E-09
  600 7.55901720E-09
  601 7.58579573E-09
  602 7.60293245E-09
  603 7.62763884E-09
  604 7.61144384E-09
  605 7.63598338E-09
  606 7.63603600E-09
  607 7.65888722E-09
  608 7.64346207E-09
  609 7.66617810E-09
  610 7.68070638E-09
  611 7.70151264E-09
  612 7.68785668E-09
  613 7.70851739E-09
  614 7.65126228E-09
  615 7.67382356E-09
  616 7.65943595E-09
  617 7.68182276E-09
  618 7.69534307E-09
  619 7.71584073E-09
  620 7.70316455E-09
  621 7.72348156E-09
  622 7.72132476E-09
  623 7.74016106E-09
  624 7.72817933E-09
  625 7.74686112E-09
  626 7.75803939E-09
  627 7.76458085E-09
  628 7.78135606E-09
  629 7.73533596E-09
  630 7.75384762E-09
  631 7.74279347E-09
  632 7.76111933E-09
  633 7.77139400E-09
  634 7.78799280E-09
  635 7.77847758E-09
  636 7.79488603E-09
  637 7.80366110E-09
  638 7.81841543E-09
  639 7.81036185E-09
  640 7.82492155E-09
  641 7.83858106E-09
  642 7.85135569E-09
  643 6.26829750E-09
  644 6.46376680E-09
  645 6.40767507E-09
  646 6.33694379E-09
  647 6.28007429E-09
  648 6.35098510E-09
  649 6.29388077E-09
  650 6.20226992E-09
  651 6.14617583E-09
  652 6.21162167E-09
  653 6.15504401E-09
  654 6.09046399E-09
  655 6.03539996E-09
  656 6.09881284E-09
  657 6.04319721E-09
  658 6.22303611E-09
  659 6.16605757E-09
  660 6.23656845E-09
  661 6.17927740E-09
  662 6.10938917E-09
  663 6.05330298E-09
  664 6.12225978E-09
  665 6.06579015E-09
  666 5.98126793E-09
  667 5.92836899E-09
  668 5.98848576E-09
  669 5.93498493E-09
  670 5.87701866E-09
  671 5.82754393E-09
  672 5.88301655E-09
  673 5.83291482E-09
  674 5.99809154E-09
  675 5.94406615E-09
  676 6.01016444E-09
  677 5.95569822E-09
  678 5.89155443E-09
  679 5.84089726E-09
  680 5.90272433E-09
  681 5.85158974E-09
  682 5.78027951E-09
  683 5.73556360E-09
  684 5.78502247E-09
  685 5.73968643E-09
  686 5.69373301E-09
  687 5.65511782E-09
  688 5.69725274E-09
  689 5.65806108E-09
  690 5.79244489E-09
  691 5.74655246E-09
  692 5.80265163E-09
  693 5.75627281E-09
  694 5.70357483E-09
  695 5.66386082E-09
  696 5.71281638E-09
  697 5.67263982E-09
  698 5.62003572E-09
  699 5.58878613E-09
  700 5.62243881E-09
  701 5.59069490E-09
  702 5.56164433E-09
  703 5.53885574E-09
  704 5.56311368E-09
  705 5.53994891E-09
  706 5.62774711E-09
  707 5.59555181E-09
  708 5.63608862E-09
  709 5.60348967E-09
  710 5.56756807E-09
  711 5.54405774E-09
  712 5.57514452E-09
  713 5.55132280E-09
  714 5.52063063E-09
  715 5.50713940E-09
  716 5.52141822E-09
  717 5.50769806E-09
  718 5.49850872E-09
  719 5.49481853E-09
  720 5.49891970E-09
  721 5.49516603E-09
  722 5.52524557E-09
  723 5.51131397E-09
  724 5.53225615E-09
  725 5.51813271E-09
  726 5.50239868E-09
  727 5.49858548E-09
  728 5.50909258E-09
  729 5.50522435E-09
  730 5.49610025E-09
  731 5.50233607E-09
  732 5.49646964E-09
  733 5.50281214E-09
  734 5.51345954E-09
  735 5.52935721E-09
  736 5.51412467E-09
  737 5.53028975E-09
  738 5.49990817E-09
  739 5.50634775E-09
  740 5.50656299E-09
  741 5.51308896E-09
  742 5.51783307E-09
  743 5.53424272E-09
  744 5.52472892E-09
  745 5.54135767E-09
  746 5.54987152E-09
  747 5.57480455E-09
  748 5.55114422E-09
  749 5.57648328E-09
  750 5.60392261E-09
  751 5.63696148E-09
  752 5.60606526E-09
  753 5.63961717E-09
  754 5.55540813E-09
  755 5.58111779E-09
  756 5.56280144E-09
  757 5.58884230E-09
  758 5.61112235E-09
  759 5.64514032E-09
  760 5.61922351E-09
  761 5.65365550E-09
  762 5.67363200E-09
  763 5.71362594E-09
  764 5.67684059E-09
  765 5.71741773E-09
  766 5.75662176E-09
  767 5.80229033E-09
  768 5.76101759E-09
  769 5.80730178E-09
  770 5.68286435E-09
  771 5.72396750E-09
  772 5.69182235E-09
  773 5.73338848E-09
  774 5.76810969E-09
  775 5.81494374E-09
  776 5.77800520E-09
  777 5.84295562E-09
  778 5.85030018E-09
  779 5.92284182E-09
  780 5.87570865E-09
  781 5.92918110E-09
  782 5.97749673E-09
  783 6.03362450E-09
  784 5.98444083E-09
  785 6.04115306E-09
  786 5.88411981E-09
  787 5.93813376E-09
  788 5.89531596E-09
  789 5.94978781E-09
  790 5.99391852E-09
  791 6.05113323E-09
  792 6.00601131E-09
  793 6.06364012E-09
  794 6.09091106E-09
  795 6.14905908E-09
  796 6.09899806E-09
  797 6.15767378E-09
  798 6.20778988E-09
  799 6.26684479E-09
  800 6.21689775E-09
  801 6.27640844E-09
  802 6.10945302E-09
  803 6.16857163E-09
  804 6.12234482E-09
  805 6.18181550E-09
  806 6.22820331E-09
  807 6.28808416E-09
  808 6.24176368E-09
  809 6.30192357E-09
  810 6.32598598E-09
  811 6.38499680E-09
  812 6.33596601E-09
  813 6.39535256E-09
  814 6.44368168E-09
  815 6.50186572E-09
  816 6.45437199E-09
  817 6.51284946E-09
  818 6.34797274E-09
  819 6.40765033E-09
  820 6.36205260E-09
  821 6.42193164E-09
  822 6.46692064E-09
  823 6.52560922E-09
  824 6.48136460E-09
  825 6.54017773E-09
  826 6.55939399E-09
  827 6.61613061E-09
  828 6.57063062E-09
  829 6.62758061E-09
  830 6.67195765E-09
  831 6.72677398E-09
  832 6.68358289E-09
  833 6.73853797E-09
  834 6.58356260E-09
  835 6.64064717E-09
  836 6.59821872E-09
  837 6.65535547E-09
  838 6.69674798E-09
  839 6.75176736E-09
  840 6.71147480E-09
  841 6.76648101E-09
  842 6.78049399E-09
  843 6.83304631E-09
  844 6.79236210E-09
  845 6.84498593E-09
  846 6.88437255E-09
  847 6.93442600E-09
  848 6.89635316E-09
  849 6.94641925E-09
  850 6.80562355E-09
  851 6.85824932E-09
  852 6.82029447E-09
  853 6.87285012E-09
  854 6.90959053E-09
  855 6.95960484E-09
  856 6.92409608E-09
  857 6.97399221E-09
  858 6.98317048E-09
  859 7.03057911E-09
  860 6.99515015E-09
  861 7.04252113E-09
  862 7.07663330E-09
  863 7.12132166E-09
  864 7.08851568E-09
  865 7.13312442E-09
  866 7.00826039E-09
  867 7.05553457E-09
  868 7.02250883E-09
  869 7.06962546E-09
  870 7.10141293E-09
  871 7.14588808E-09
  872 7.11532968E-09
  873 7.15961602E-09
  874 7.16463912E-09
  875 7.20658603E-09
  876 7.17634420E-09
  877 7.21817720E-09
  878 7.24716740E-09
  879 7.27424030E-09
  880 7.24666079E-09
  881 7.28564531E-09
  882 7.18895874E-09
  883 7.23062886E-09
  884 7.20248502E-09
  885 7.24394233E-09
  886 7.25901684E-09
  887 7.29781617E-09
  888 7.27218338E-09
  889 7.31075271E-09
  890 7.31202880E-09
  891 7.34849465E-09
  892 7.32328111E-09
  893 7.35958406E-09
  894 7.38365460E-09
  895 7.41752723E-09
  896 7.39457218E-09
  897 7.42826524E-09
  898 7.33525742E-09
  899 7.37135779E-09
  900 7.34795696E-09
  901 7.38381454E-09
  902 7.40613651E-09
  903 7.43961440E-09
  904 7.41834581E-09
  905 7.45157259E-09
  906 7.45013254E-09
  907 7.48149161E-09
  908 7.46068429E-09
  909 7.49185136E-09
  910 7.51162628E-09
  911 7.54055888E-09
  912 7.52178914E-09
  913 7.55052076E-09
  914 7.47181352E-09
  915 7.50275676E-09
  916 7.48351780E-09
  917 7.51420513E-09
  918 7.53246760E-09
  919 7.56096982E-09
  920 7.54365874E-09
  921 7.57190302E-09
  922 7.56831204E-09
  923 7.59490844E-09
  924 7.57806949E-09
  925 7.60445860E-09
  926 7.62037067E-09
  927 7.64472111E-09
  928 7.62971123E-09
  929 7.65385016E-09
  930 7.58828731E-09
  931 7.61444386E-09
  932 7.59896236E-09
  933 7.62486098E-09
  934 7.63946303E-09
  935 7.66336798E-09
  936 7.64962281E-09
  937 7.67327130E-09
  938 7.66798178E-09
  939 7.69017425E-09
  940 7.67689780E-09
  941 7.69887603E-09
  942 7.71131960E-09
  943 7.73143831E-09
  944 7.71980617E-09
  945 7.73970890E-09
  946 7.68618142E-09
  947 7.70792548E-09
  948 7.69582938E-09
  949 7.71731937E-09
  950 7.72862164E-09
  951 7.74829074E-09
  952 7.73776286E-09
  953 7.75718075E-09
  954 7.75055024E-09
  955 7.76867462E-09
  956 7.75860422E-09
  957 7.77651145E-09
  958 7.78582998E-09
  959 7.80203418E-09
  960 7.79344918E-09
  961 7.80943528E-09
  962 7.76695285E-09
  963 7.78462734E-09
  964 7.77559316E-09
  965 7.79301941E-09
  966 7.80133279E-09
  967 7.81708705E-09
  968 7.80947806E-09
  969 7.82498684E-09
  970 7.81730441E-09
  971 7.83165718E-09
  972 7.82448692E-09
  973 7.83862054E-09
  974 7.84510837E-09
  975 7.85767319E-09
  976 7.85185192E-09
  977 7.86419618E-09
  978 7.83190719E-09
  979 7.84580956E-09
  980 7.83956272E-09
  981 7.85322188E-09
  982 7.85880980E-09
  983 7.87092286E-09
  984 7.86597980E-09
  985 7.87785121E-09
  986 7.86936629E-09
  987 7.88020176E-09
  988 7.87566779E-09
  989 7.88628069E-09
  990 7.89604822E-09
  991 7.90498330E-09
  992 7.88216304E-09
  993 7.89254405E-09
  994 7.88885019E-09
  995 7.89899020E-09
  996 7.90207903E-09
  997 7.91078060E-09
  998 7.90828410E-09
  999 7.91674425E-09
  1000 7.91866098E-09
  1001 7.92573197E-09
  1002 7.92438255E-09
  1003 7.93121050E-09
  1004 7.93738385E-09
  1005 6.60760881E-09
  1006 6.55327788E-09
  1007 6.62712963E-09
  1008 6.57298394E-09
  1009 6.64831494E-09
  1010 6.59444868E-09
  1011 6.47995974E-09
  1012 6.42380154E-09
  1013 6.49797772E-09
  1014 6.44184652E-09
  1015 6.36700751E-09
  1016 6.30976085E-09
  1017 6.38504386E-09
  1018 6.32775189E-09
  1019 6.51783940E-09
  1020 6.46183222E-09
  1021 6.53955707E-09
  1022 6.48377410E-09
  1023 6.40512024E-09
  1024 6.34788420E-09
  1025 6.42725557E-09
  1026 6.37018046E-09
  1027 6.25226776E-09
  1028 6.19475798E-09
  1029 6.27017626E-09
  1030 6.21254668E-09
  1031 6.13748483E-09
  1032 6.08072483E-09
  1033 6.15511713E-09
  1034 6.09816547E-09
  1035 6.29032875E-09
  1036 6.23268310E-09
  1037 6.31275199E-09
  1038 6.25519841E-09
  1039 6.17520134E-09
  1040 6.11816209E-09
  1041 6.19777331E-09
  1042 6.14075547E-09
  1043 6.02477667E-09
  1044 5.96995962E-09
  1045 6.04199258E-09
  1046 5.98692072E-09
  1047 5.91661107E-09
  1048 5.86508343E-09
  1049 5.93329115E-09
  1050 5.88146101E-09
  1051 6.06186773E-09
  1052 6.00664282E-09
  1053 6.08444807E-09
  1054 6.02917723E-09
  1055 5.95283174E-09
  1056 5.90079559E-09
  1057 5.97528965E-09
  1058 5.92314956E-09
  1059 5.81574017E-09
  1060 5.76895111E-09
  1061 5.83179934E-09
  1062 5.78468224E-09
  1063 5.72508698E-09
  1064 5.68451330E-09
  1065 5.74048735E-09
  1066 5.69958755E-09
  1067 5.85090816E-09
  1068 5.80355104E-09
  1069 5.87313463E-09
  1070 5.82563107E-09
  1071 5.75910799E-09
  1072 5.71795849E-09
  1073 5.78102787E-09
  1074 5.73971025E-09
  1075 5.64758385E-09
  1076 5.61463375E-09
  1077 5.66234426E-09
  1078 5.62910025E-09
  1079 5.58597251E-09
  1080 5.56187718E-09
  1081 5.60017246E-09
  1082 5.57584485E-09
  1083 5.68047084E-09
  1084 5.64699479E-09
  1085 5.70205259E-09
  1086 5.66841083E-09
  1087 5.61785408E-09
  1088 5.59333906E-09
  1089 5.63911481E-09
  1090 5.61446065E-09
  1091 5.54258594E-09
  1092 5.52829242E-09
  1093 5.55636181E-09
  1094 5.54192212E-09
  1095 5.51914090E-09
  1096 5.51522269E-09
  1097 5.53267403E-09
  1098 5.52871143E-09
  1099 5.57369984E-09
  1100 5.55914001E-09
  1101 5.59470365E-09
  1102 5.58005180E-09
  1103 5.54981153E-09
  1104 5.54581073E-09
  1105 5.57066044E-09
  1106 5.56662817E-09
  1107 5.51657387E-09
  1108 5.52317446E-09
  1109 5.53007153E-09
  1110 5.53673388E-09
  1111 5.53494901E-09
  1112 5.55176875E-09
  1113 5.54862113E-09
  1114 5.56560113E-09
  1115 5.54717584E-09
  1116 5.55388608E-09
  1117 5.56799421E-09
  1118 5.57473747E-09
  1119 5.56586231E-09
  1120 5.58296931E-09
  1121 5.58677725E-09
  1122 5.60397554E-09
  1123 5.57345496E-09
  1124 5.59978363E-09
  1125 5.58749055E-09
  1126 5.61405970E-09
  1127 5.63049102E-09
  1128 5.66527990E-09
  1129 5.64503829E-09
  1130 5.68012199E-09
  1131 5.60501951E-09
  1132 5.63177796E-09
  1133 5.62614096E-09
  1134 5.65303386E-09
  1135 5.66296840E-09
  1136 5.69828000E-09
  1137 5.68437260E-09
  1138 5.71984055E-09
  1139 5.70382636E-09
  1140 5.74578665E-09
  1141 5.71897945E-09
  1142 5.76125942E-09
  1143 5.79080410E-09
  1144 5.85663964E-09
  1145 5.80659789E-09
  1146 5.87336635E-09
  1147 5.73737464E-09
  1148 5.77989432E-09
  1149 5.75909359E-09
  1150 5.80176776E-09
  1151 5.84242217E-09
  1152 5.89320962E-09
  1153 5.86533514E-09
  1154 5.91623188E-09
  1155 5.90938392E-09
  1156 5.96422364E-09
  1157 5.92640163E-09
  1158 5.98151300E-09
  1159 6.02079325E-09
  1160 6.07874157E-09
  1161 6.03832996E-09
  1162 6.09649725E-09
  1163 5.94643699E-09
  1164 6.00171790E-09
  1165 5.96954686E-09
  1166 6.02488967E-09
  1167 6.05867769E-09
  1168 6.11695779E-09
  1169 6.08188238E-09
  1170 6.14016391E-09
  1171 6.13773527E-09
  1172 6.19746140E-09
  1173 6.15567829E-09
  1174 6.21555776E-09
  1175 6.25762934E-09
  1176 6.31797189E-09
  1177 6.27584345E-09
  1178 6.33626736E-09
  1179 6.17621910E-09
  1180 6.23614462E-09
  1181 6.19939346E-09
  1182 6.25925306E-09
  1183 6.29644122E-09
  1184 6.35684063E-09
  1185 6.31944927E-09
  1186 6.37971417E-09
  1187 6.37824588E-09
  1188 6.43823217E-09
  1189 6.39658618E-09
  1190 6.45658121E-09
  1191 6.49773523E-09
  1192 6.55658239E-09
  1193 6.51605787E-09
  1194 6.57484486E-09
  1195 6.41709990E-09
  1196 6.47700122E-09
  1197 6.43980570E-09
  1198 6.49950739E-09
  1199 6.53635137E-09
  1200 6.59498070E-09
  1201 6.55862771E-09
  1202 6.61699903E-09
  1203 6.61462274E-09
  1204 6.67172592E-09
  1205 6.63279297E-09
  1206 6.68977379E-09
  1207 6.72778070E-09
  1208 6.78269352E-09
  1209 6.74567823E-09
  1210 6.80041496E-09
  1211 6.65274199E-09
  1212 6.70950898E-09
  1213 6.67447632E-09
  1214 6.73093568E-09
  1215 6.76517485E-09
  1216 6.81965065E-09
  1217 6.78627273E-09
  1218 6.84040096E-09
  1219 6.83638695E-09
  1220 6.88879821E-09
  1221 6.85390887E-09
  1222 6.90609948E-09
  1223 6.93987767E-09
  1224 6.98958743E-09
  1225 6.95693946E-09
  1226 7.00639314E-09
  1227 6.87286363E-09
  1228 6.92475568E-09
  1229 6.89325006E-09
  1230 6.94476427E-09
  1231 6.97528175E-09
  1232 7.02440836E-09
  1233 6.99490083E-09
  1234 7.04362842E-09
  1235 7.03789998E-09
  1236 7.08479693E-09
  1237 7.05443514E-09
  1238 7.10104912E-09
  1239 7.13026783E-09
  1240 7.17430909E-09
  1241 7.14622652E-09
  1242 7.18996556E-09
  1243 7.07211225E-09
  1244 7.11837902E-09
  1245 7.09092581E-09
  1246 7.13678049E-09
  1247 7.16320198E-09
  1248 7.20658101E-09
  1249 7.18118750E-09
  1250 7.22414830E-09
  1251 7.21692298E-09
  1252 7.24647820E-09
  1253 7.23227016E-09
  1254 7.26157738E-09
  1255 7.28615898E-09
  1256 7.32445291E-09
  1257 7.30094013E-09
  1258 7.33891284E-09
  1259 7.23712211E-09
  1260 7.27752530E-09
  1261 7.25432829E-09
  1262 7.29431437E-09
  1263 7.31652121E-09
  1264 7.35412661E-09
  1265 7.33289445E-09
  1266 7.37008635E-09
  1267 7.36137720E-09
  1268 7.39695140E-09
  1269 7.37551388E-09
  1270 7.41076381E-09
  1271 7.43119686E-09
  1272 7.46413629E-09
  1273 7.44468488E-09
  1274 7.47730060E-09
  1275 7.39036091E-09
  1276 7.42524555E-09
  1277 7.40591036E-09
  1278 7.44038872E-09
  1279 7.45880359E-09
  1280 7.49105919E-09
  1281 7.47354513E-09
  1282 7.50540431E-09
  1283 7.49579342E-09
  1284 7.52619261E-09
  1285 7.50863536E-09
  1286 7.53871413E-09
  1287 7.55535861E-09
  1288 7.58331633E-09
  1289 7.56756213E-09
  1290 7.59520469E-09
  1291 7.52203733E-09
  1292 7.55176343E-09
  1293 7.53599169E-09
  1294 7.56533305E-09
  1295 7.58026313E-09
  1296 7.60756203E-09
  1297 7.59345431E-09
  1298 7.62038128E-09
  1299 7.61009056E-09
  1300 7.63570590E-09
  1301 7.62166693E-09
  1302 7.64697370E-09
  1303 7.66018653E-09
  1304 7.68355613E-09
  1305 7.67114937E-09
  1306 7.69421775E-09
  1307 7.63368551E-09
  1308 7.65865857E-09
  1309 7.64613945E-09
  1310 7.67075390E-09
  1311 7.68250570E-09
  1312 7.70525074E-09
  1313 7.69424912E-09
  1314 7.71664894E-09
  1315 7.70583778E-09
  1316 7.72705388E-09
  1317 7.71620201E-09
  1318 7.73712458E-09
  1319 7.74722610E-09
  1320 7.76637534E-09
  1321 7.75700710E-09
  1322 7.77587040E-09
  1323 7.72691686E-09
  1324 7.74752644E-09
  1325 7.73797641E-09
  1326 7.75825381E-09
  1327 7.76710103E-09
  1328 7.78566133E-09
  1329 7.77750251E-09
  1330 7.79574302E-09
  1331 7.78452167E-09
  1332 7.80168435E-09
  1333 7.79373447E-09
  1334 7.81061842E-09
  1335 7.81788181E-09
  1336 7.83313166E-09
  1337 7.82654052E-09
  1338 7.84151819E-09
  1339 7.80322717E-09
  1340 7.81981747E-09
  1341 7.81299494E-09
  1342 7.82927692E-09
  1343 7.83545026E-09
  1344 7.85014272E-09
  1345 7.84460675E-09
  1346 7.85900126E-09
  1347 7.84745069E-09
  1348 7.86085488E-09
  1349 7.85556798E-09
  1350 7.86870564E-09
  1351 7.87335948E-09
  1352 7.88497898E-09
  1353 7.88094615E-09
  1354 7.89230370E-09
  1355 7.86391114E-09
  1356 7.87677096E-09
  1357 7.87247643E-09
  1358 7.88504737E-09
  1359 7.88873685E-09
  1360 7.89982267E-09
  1361 7.89672838E-09
  1362 7.90753297E-09
  1363 7.89572720E-09
  1364 7.90561729E-09
  1365 7.90279181E-09
  1366 7.91242331E-09
  1367 7.91466183E-09
  1368 7.92287285E-09
  1369 7.92121043E-09
  1370 7.92916485E-09
  1371 7.91004158E-09
  1372 7.91940607E-09
  1373 7.91747388E-09
  1374 7.92656322E-09
  1375 7.92792798E-09
  1376 7.93561861E-09
  1377 7.93481240E-09
  1378 7.94223232E-09
  1379 7.93026191E-09
  1380 7.93684018E-09
  1381 7.93629778E-09
  1382 7.94261999E-09
  1383 7.94261847E-09
  1384 7.94760735E-09
  1385 7.94814191E-09
  1386 7.95287373E-09
  1387 7.94248875E-09
  1388 7.94854879E-09
  1389 7.94883334E-09
  1390 7.95462539E-09
  1391 7.95380874E-09
  1392 7.95827836E-09
  1393 7.95961806E-09
  1394 7.96382064E-09
  1395 7.95181720E-09
  1396 7.95682543E-09
  1397 7.96000691E-09
  1398 7.96116348E-09
  1399 7.96196721E-09
  1400 7.96488478E-09
  1401 7.96724226E-09
  1402 7.96989194E-09
  1403 7.96704052E-09
  1404 7.96844401E-09