# File generated by Flopy version 3.9.1 on 02/10/2026 at 00:15:04.
BEGIN options
  SAVE_FLOWS
END options

BEGIN dimensions
  MAXBOUND  36579
END dimensions

BEGIN period  1
  2 117 -0.00000000E+00
  2 347 -0.00000000E+00
  2 352 -0.00000000E+00
  2 359 -0.00000000E+00
  2 360 -0.00000000E+00
  2 382 -0.00000000E+00
  2 383 -0.00000000E+00
  2 384 -0.00000000E+00
  2 385 -0.00000000E+00
  2 386 -0.00000000E+00
  2 387 -0.00000000E+00
  2 388 -0.00000000E+00
  2 389 -0.00000000E+00
  2 391 -0.00000000E+00
  2 392 -0.00000000E+00
  2 393 -0.00000000E+00
  2 394 -0.00000000E+00
  2 395 -0.00000000E+00
  2 396 -0.00000000E+00
  2 397 -0.00000000E+00
  2 398 -0.00000000E+00
  2 399 -0.00000000E+00
  2 400 -0.00000000E+00
  2 401 -0.00000000E+00
  2 402 -0.00000000E+00
  2 403 -0.00000000E+00
  2 404 -0.00000000E+00
  2 405 -0.00000000E+00
  2 406 -0.00000000E+00
  2 407 -0.00000000E+00
  2 409 -0.00000000E+00
  2 410 -0.00000000E+00
  2 411 -0.00000000E+00
  2 412 -0.00000000E+00
  2 413 -0.00000000E+00
  2 414 -0.00000000E+00
  2 415 -0.00000000E+00
  2 416 -0.00000000E+00
  2 417 -0.00000000E+00
  2 418 -0.00000000E+00
  2 419 -0.00000000E+00
  2 420 -0.00000000E+00
  2 421 -0.00000000E+00
  2 422 -0.00000000E+00
  2 424 -0.00000000E+00
  2 425 -0.00000000E+00
  2 514 -0.00000000E+00
  2 515 -8.38310719E-04
  2 516 -0.00000000E+00
  2 517 -0.00000000E+00
  2 518 -8.38310719E-04
  2 519 -8.38310719E-04
  2 533 -0.00000000E+00
  2 534 -0.00000000E+00
  2 535 -0.00000000E+00
  2 536 -0.00000000E+00
  2 538 -0.00000000E+00
  2 550 -0.00000000E+00
  2 597 -0.00000000E+00
  2 598 -0.00000000E+00
  2 599 -0.00000000E+00
  2 600 -0.00000000E+00
  2 601 -0.00000000E+00
  2 602 -0.00000000E+00
  2 603 -0.00000000E+00
  2 604 -0.00000000E+00
  2 605 -0.00000000E+00
  2 606 -0.00000000E+00
  2 607 -0.00000000E+00
  2 608 -0.00000000E+00
  2 609 -0.00000000E+00
  2 610 -0.00000000E+00
  2 611 -0.00000000E+00
  2 612 -0.00000000E+00
  2 613 -0.00000000E+00
  2 614 -0.00000000E+00
  2 615 -0.00000000E+00
  2 616 -0.00000000E+00
  2 617 -0.00000000E+00
  2 618 -0.00000000E+00
  2 619 -1.25746608E-03
  2 620 -0.00000000E+00
  2 621 -0.00000000E+00
  2 623 -0.00000000E+00
  2 624 -0.00000000E+00
  2 625 -0.00000000E+00
  2 626 -0.00000000E+00
  2 627 -0.00000000E+00
  2 628 -0.00000000E+00
  2 629 -0.00000000E+00
  2 630 -0.00000000E+00
  2 631 -0.00000000E+00
  2 632 -0.00000000E+00
  2 633 -0.00000000E+00
  2 634 -0.00000000E+00
  2 635 -0.00000000E+00
  2 636 -0.00000000E+00
  2 637 -0.00000000E+00
  2 638 -0.00000000E+00
  2 639 -8.38310719E-04
  2 640 -8.38310719E-04
  2 641 -0.00000000E+00
  2 642 -0.00000000E+00
  2 643 -0.00000000E+00
  2 644 -8.38310719E-04
  2 645 -8.38310719E-04
  2 646 -0.00000000E+00
  2 649 -8.38310719E-04
  2 650 -1.25746608E-03
  2 651 -8.38310719E-04
  2 652 -8.38310719E-04
  2 653 -8.38310719E-04
  2 654 -8.38310719E-04
  2 655 -8.38310719E-04
  2 656 -8.38310719E-04
  2 657 -0.00000000E+00
  2 658 -8.38310719E-04
  2 659 -0.00000000E+00
  2 660 -0.00000000E+00
  2 661 -0.00000000E+00
  2 662 -0.00000000E+00
  2 663 -0.00000000E+00
  2 664 -0.00000000E+00
  2 665 -0.00000000E+00
  2 666 -0.00000000E+00
  2 667 -0.00000000E+00
  2 668 -0.00000000E+00
  2 669 -0.00000000E+00
  2 670 -0.00000000E+00
  2 671 -8.38310719E-04
  2 672 -0.00000000E+00
  2 673 -0.00000000E+00
  2 674 -0.00000000E+00
  2 675 -0.00000000E+00
  2 676 -0.00000000E+00
  2 677 -0.00000000E+00
  2 678 -0.00000000E+00
  2 679 -0.00000000E+00
  2 681 -0.00000000E+00
  2 682 -0.00000000E+00
  2 683 -0.00000000E+00
  2 2067 -1.25746608E-03
  2 2068 -1.25746608E-03
  2 2069 -1.25746608E-03
  2 2070 -1.25746608E-03
  2 2071 -1.25746608E-03
  2 2072 -1.25746608E-03
  2 2073 -1.25746608E-03
  2 2074 -1.25746608E-03
  2 2075 -1.25746608E-03
  2 2076 -1.25746608E-03
  2 2077 -1.25746608E-03
  2 2078 -1.25746608E-03
  2 2079 -1.25746608E-03
  2 2080 -1.25746608E-03
  2 2081 -1.25746608E-03
  2 2082 -1.25746608E-03
  2 2083 -1.25746608E-03
  2 2085 -0.00000000E+00
  2 2086 -0.00000000E+00
  2 2087 -0.00000000E+00
  2 2088 -0.00000000E+00
  2 2089 -0.00000000E+00
  2 2090 -0.00000000E+00
  2 2091 -0.00000000E+00
  2 2092 -0.00000000E+00
  2 2093 -1.80236805E-02
  2 2094 -0.00000000E+00
  2 2095 -0.00000000E+00
  2 2096 -1.25746608E-03
  2 2097 -0.00000000E+00
  2 2098 -1.25746608E-03
  2 2099 -0.00000000E+00
  2 2100 -0.00000000E+00
  2 2101 -1.25746608E-03
  2 2102 -0.00000000E+00
  2 2103 -0.00000000E+00
  2 2104 -1.25746608E-03
  2 2105 -0.00000000E+00
  2 2106 -1.25746608E-03
  2 2107 -1.25746608E-03
  2 2108 -1.25746608E-03
  2 2109 -1.25746608E-03
  2 2110 -1.25746608E-03
  2 2111 -1.25746608E-03
  2 2112 -1.25746608E-03
  2 2113 -1.25746608E-03
  2 2114 -1.25746608E-03
  2 2115 -1.25746608E-03
  2 2116 -1.25746608E-03
  2 2117 -3.77239823E-03
  2 2118 -1.25746608E-03
  2 2119 -0.00000000E+00
  2 2122 -1.25746608E-03
  2 2123 -1.25746608E-03
  2 2125 -1.25746608E-03
  2 2126 -1.25746608E-03
  2 2127 -1.25746608E-03
  2 2128 -1.25746608E-03
  2 2133 -1.25746608E-03
  2 2146 -1.25746608E-03
  2 2147 -1.25746608E-03
  2 2149 -0.00000000E+00
  2 2150 -1.25746608E-03
  2 2151 -0.00000000E+00
  2 2152 -0.00000000E+00
  2 2153 -0.00000000E+00
  2 2154 -0.00000000E+00
  2 2155 -0.00000000E+00
  2 2156 -0.00000000E+00
  2 2157 -0.00000000E+00
  2 2158 -0.00000000E+00
  2 2162 -0.00000000E+00
  2 2167 -0.00000000E+00
  2 2182 -0.00000000E+00
  2 2188 -0.00000000E+00
  2 2234 -0.00000000E+00
  2 2235 -1.25746608E-03
  2 2408 -4.02389145E-02
  2 4902 -0.00000000E+00
  2 9534 -0.00000000E+00
  2 9644 -0.00000000E+00
  2 10572 -0.00000000E+00
  2 10609 -0.00000000E+00
  2 10630 -0.00000000E+00
  2 10642 -0.00000000E+00
  2 10652 -0.00000000E+00
  2 10657 -0.00000000E+00
  2 10808 -0.00000000E+00
  2 10936 -0.00000000E+00
  2 11067 -0.00000000E+00
  2 11068 -0.00000000E+00
  2 11069 -0.00000000E+00
  2 11070 -0.00000000E+00
  2 11071 -0.00000000E+00
  2 11072 -0.00000000E+00
  2 11073 -0.00000000E+00
  2 11074 -0.00000000E+00
  2 11075 -0.00000000E+00
  2 11349 -0.00000000E+00
  2 11352 -0.00000000E+00
  2 11421 -0.00000000E+00
  2 11424 -0.00000000E+00
  2 11425 -0.00000000E+00
  2 11426 -0.00000000E+00
  2 11427 -0.00000000E+00
  2 11428 -0.00000000E+00
  2 11429 -0.00000000E+00
  2 11430 -0.00000000E+00
  2 11431 -8.38310719E-04
  2 11587 -0.00000000E+00
  2 11588 -0.00000000E+00
  2 11589 -0.00000000E+00
  2 11590 -0.00000000E+00
  2 11591 -0.00000000E+00
  2 11592 -0.00000000E+00
  2 11688 -0.00000000E+00
  2 11689 -0.00000000E+00
  2 11690 -0.00000000E+00
  2 11691 -0.00000000E+00
  2 11692 -0.00000000E+00
  2 11693 -0.00000000E+00
  2 11694 -0.00000000E+00
  2 11695 -0.00000000E+00
  2 11696 -0.00000000E+00
  2 11697 -0.00000000E+00
  2 11698 -0.00000000E+00
  2 11699 -0.00000000E+00
  2 11822 -0.00000000E+00
  2 11823 -0.00000000E+00
  2 11824 -0.00000000E+00
  2 11825 -0.00000000E+00
  2 11826 -0.00000000E+00
  2 12061 -0.00000000E+00
  2 12062 -0.00000000E+00
  2 12081 -0.00000000E+00
  2 12083 -0.00000000E+00
  2 12084 -0.00000000E+00
  2 12085 -0.00000000E+00
  2 12086 -0.00000000E+00
  2 12105 -0.00000000E+00
  2 12106 -0.00000000E+00
  2 12107 -0.00000000E+00
  2 12156 -0.00000000E+00
  2 12157 -0.00000000E+00
  2 12158 -0.00000000E+00
  2 12159 -0.00000000E+00
  2 12160 -0.00000000E+00
  2 12291 -0.00000000E+00
  2 12292 -0.00000000E+00
  2 12293 -0.00000000E+00
  2 12353 -0.00000000E+00
  2 12354 -0.00000000E+00
  2 12355 -0.00000000E+00
  2 12356 -0.00000000E+00
  2 12357 -0.00000000E+00
  2 12427 -0.00000000E+00
  2 12428 -0.00000000E+00
  2 12429 -0.00000000E+00
  2 12430 -0.00000000E+00
  2 12431 -0.00000000E+00
  2 12442 -0.00000000E+00
  2 12443 -0.00000000E+00
  2 12445 -0.00000000E+00
  2 12465 -0.00000000E+00
  2 12466 -0.00000000E+00
  2 12467 -0.00000000E+00
  2 12468 -0.00000000E+00
  2 12469 -0.00000000E+00
  2 12478 -0.00000000E+00
  2 12479 -0.00000000E+00
  2 12480 -0.00000000E+00
  2 12481 -0.00000000E+00
  2 12572 -0.00000000E+00
  2 12573 -0.00000000E+00
  2 12574 -0.00000000E+00
  2 12575 -0.00000000E+00
  2 12576 -0.00000000E+00
  2 12577 -0.00000000E+00
  2 12817 -0.00000000E+00
  2 12835 -0.00000000E+00
  2 12836 -0.00000000E+00
  2 12838 -0.00000000E+00
  2 12839 -0.00000000E+00
  2 12840 -0.00000000E+00
  2 12841 -0.00000000E+00
  2 12860 -0.00000000E+00
  2 12861 -0.00000000E+00
  2 12918 -0.00000000E+00
  2 12924 -0.00000000E+00
  2 12925 -0.00000000E+00
  2 12926 -0.00000000E+00
  2 12927 -0.00000000E+00
  2 12928 -0.00000000E+00
  2 12929 -0.00000000E+00
  2 12930 -0.00000000E+00
  2 12931 -0.00000000E+00
  2 13080 -0.00000000E+00
  2 13081 -0.00000000E+00
  2 13082 -0.00000000E+00
  2 13260 -0.00000000E+00
  2 13261 -0.00000000E+00
  2 13265 -0.00000000E+00
  2 13266 -0.00000000E+00
  2 13267 -0.00000000E+00
  2 13268 -0.00000000E+00
  2 13287 -0.00000000E+00
  2 13288 -0.00000000E+00
  2 13289 -0.00000000E+00
  2 13296 -0.00000000E+00
  2 13370 -0.00000000E+00
  2 13371 -0.00000000E+00
  2 13372 -0.00000000E+00
  2 13373 -0.00000000E+00
  2 13383 -0.00000000E+00
  2 13384 -0.00000000E+00
  2 13463 -0.00000000E+00
  2 13464 -0.00000000E+00
  2 13467 -0.00000000E+00
  2 13468 -0.00000000E+00
  2 13477 -0.00000000E+00
  2 13478 -0.00000000E+00
  2 13479 -0.00000000E+00
  2 13480 -0.00000000E+00
  2 13569 -0.00000000E+00
  2 13579 -0.00000000E+00
  2 13580 -0.00000000E+00
  2 13588 -0.00000000E+00
  2 13605 -0.00000000E+00
  2 13606 -0.00000000E+00
  2 13607 -0.00000000E+00
  2 13608 -0.00000000E+00
  2 13609 -0.00000000E+00
  2 13610 -0.00000000E+00
  2 13611 -0.00000000E+00
  2 13612 -0.00000000E+00
  2 13613 -0.00000000E+00
  2 13628 -0.00000000E+00
  2 13629 -0.00000000E+00
  2 13630 -0.00000000E+00
  2 13631 -0.00000000E+00
  2 13675 -0.00000000E+00
  2 13676 -0.00000000E+00
  2 13677 -0.00000000E+00
  2 13680 -0.00000000E+00
  2 13681 -0.00000000E+00
  2 13682 -0.00000000E+00
  2 13683 -0.00000000E+00
  2 13684 -0.00000000E+00
  2 13685 -0.00000000E+00
  2 13797 -0.00000000E+00
  2 13969 -0.00000000E+00
  2 13976 -0.00000000E+00
  2 13977 -0.00000000E+00
  2 13978 -0.00000000E+00
  2 14018 -0.00000000E+00
  2 14019 -0.00000000E+00
  2 14022 -0.00000000E+00
  2 14075 -0.00000000E+00
  2 14076 -0.00000000E+00
  2 14093 -0.00000000E+00
  2 14137 -0.00000000E+00
  2 14138 -0.00000000E+00
  2 14139 -0.00000000E+00
  2 14140 -0.00000000E+00
  2 14141 -0.00000000E+00
  2 14377 -0.00000000E+00
  2 14378 -0.00000000E+00
  2 14379 -0.00000000E+00
  2 14419 -0.00000000E+00
  2 14420 -0.00000000E+00
  2 14421 -0.00000000E+00
  2 14539 -0.00000000E+00
  2 14546 -0.00000000E+00
  2 14547 -0.00000000E+00
  2 14548 -0.00000000E+00
  2 14665 -0.00000000E+00
  2 14666 -0.00000000E+00
  2 14667 -0.00000000E+00
  2 14668 -0.00000000E+00
  2 14705 -0.00000000E+00
  2 14706 -0.00000000E+00
  2 14707 -0.00000000E+00
  2 14708 -0.00000000E+00
  2 14709 -0.00000000E+00
  2 14710 -0.00000000E+00
  2 14711 -1.25746608E-03
  2 14712 -1.25746608E-03
  2 14713 -0.00000000E+00
  2 14714 -0.00000000E+00
  2 14748 -0.00000000E+00
  2 14749 -0.00000000E+00
  2 14750 -0.00000000E+00
  2 14751 -0.00000000E+00
  2 14752 -0.00000000E+00
  2 14753 -0.00000000E+00
  2 14754 -0.00000000E+00
  2 14756 -0.00000000E+00
  2 14766 -0.00000000E+00
  2 14767 -0.00000000E+00
  2 14843 -0.00000000E+00
  2 14844 -0.00000000E+00
  2 14845 -0.00000000E+00
  2 14846 -0.00000000E+00
  2 14847 -0.00000000E+00
  2 14848 -0.00000000E+00
  2 14849 -0.00000000E+00
  2 14871 -8.38310719E-04
  2 14874 -0.00000000E+00
  2 14875 -1.25746608E-03
  2 14876 -0.00000000E+00
  2 14877 -0.00000000E+00
  2 14878 -0.00000000E+00
  2 14879 -0.00000000E+00
  2 14880 -0.00000000E+00
  2 14881 -0.00000000E+00
  2 14882 -2.93408752E-03
  2 14883 -1.67662144E-03
  2 14884 -8.38310719E-04
  2 14885 -8.38310719E-04
  2 14886 -0.00000000E+00
  2 14887 -0.00000000E+00
  2 15014 -1.25746608E-03
  2 15015 -1.25746608E-03
  2 15016 -1.25746608E-03
  2 15017 -0.00000000E+00
  2 15018 -0.00000000E+00
  2 15019 -0.00000000E+00
  2 15020 -0.00000000E+00
  2 15222 -0.00000000E+00
  2 15223 -0.00000000E+00
  2 15228 -0.00000000E+00
  2 15229 -0.00000000E+00
  2 15230 -0.00000000E+00
  2 15231 -0.00000000E+00
  2 15232 -0.00000000E+00
  2 15247 -0.00000000E+00
  2 15248 -0.00000000E+00
  2 15251 -0.00000000E+00
  2 15252 -0.00000000E+00
  2 15253 -0.00000000E+00
  2 15254 -0.00000000E+00
  2 15255 -0.00000000E+00
  2 15256 -0.00000000E+00
  2 15257 -0.00000000E+00
  2 15258 -0.00000000E+00
  2 15259 -0.00000000E+00
  2 15260 -0.00000000E+00
  2 15261 -0.00000000E+00
  2 15262 -0.00000000E+00
  2 15263 -0.00000000E+00
  2 15264 -0.00000000E+00
  2 15265 -0.00000000E+00
  2 15327 -0.00000000E+00
  2 15328 -1.25746608E-03
  2 15329 -0.00000000E+00
  2 15330 -1.25746608E-03
  2 15331 -0.00000000E+00
  2 15332 -0.00000000E+00
  2 15333 -0.00000000E+00
  2 15334 -0.00000000E+00
  2 15335 -0.00000000E+00
  2 15336 -0.00000000E+00
  2 15337 -0.00000000E+00
  2 15338 -0.00000000E+00
  2 15339 -0.00000000E+00
  2 15340 -0.00000000E+00
  2 15341 -0.00000000E+00
  2 15342 -0.00000000E+00
  2 15343 -0.00000000E+00
  2 15344 -0.00000000E+00
  2 15345 -0.00000000E+00
  2 15346 -0.00000000E+00
  2 15347 -0.00000000E+00
  2 15348 -0.00000000E+00
  2 15349 -0.00000000E+00
  2 15350 -0.00000000E+00
  2 15351 -2.93408752E-03
  2 15352 -4.19155359E-04
  2 15353 -8.38310719E-04
  2 15354 -8.38310719E-04
  2 15355 -8.38310719E-04
  2 15356 -8.38310719E-04
  2 15357 -0.00000000E+00
  2 15358 -1.25746608E-03
  2 15359 -0.00000000E+00
  2 15360 -0.00000000E+00
  2 15741 -1.25746608E-03
  2 15742 -1.25746608E-03
  2 15743 -1.25746608E-03
  2 15744 -1.25746608E-03
  2 15745 -1.25746608E-03
  2 15746 -1.25746608E-03
  2 15747 -1.25746608E-03
  2 15748 -1.25746608E-03
  2 15749 -1.25746608E-03
  2 15750 -1.25746608E-03
  2 15751 -0.00000000E+00
  2 15752 -0.00000000E+00
  2 15753 -1.25746608E-03
  2 15754 -0.00000000E+00
  2 15755 -1.25746608E-03
  2 15756 -0.00000000E+00
  2 15757 -1.25746608E-03
  2 15758 -1.25746608E-03
  2 15759 -1.25746608E-03
  2 15760 -1.25746608E-03
  2 15761 -0.00000000E+00
  2 15762 -0.00000000E+00
  2 15763 -0.00000000E+00
  2 15764 -0.00000000E+00
  2 15765 -0.00000000E+00
  2 15766 -0.00000000E+00
  2 15767 -0.00000000E+00
  2 15768 -0.00000000E+00
  2 15769 -1.67662144E-03
  2 15770 -0.00000000E+00
  2 15771 -0.00000000E+00
  2 15773 -0.00000000E+00
  2 15775 -0.00000000E+00
  2 15776 -0.00000000E+00
  2 15885 -0.00000000E+00
  2 15889 -8.38310719E-04
  2 15890 -0.00000000E+00
  2 15973 -0.00000000E+00
  2 15974 -0.00000000E+00
  2 15975 -0.00000000E+00
  2 15976 -0.00000000E+00
  2 15977 -0.00000000E+00
  2 15978 -0.00000000E+00
  2 15979 -0.00000000E+00
  2 15980 -0.00000000E+00
  2 15981 -0.00000000E+00
  2 15982 -0.00000000E+00
  2 15999 -0.00000000E+00
  2 16000 -0.00000000E+00
  2 16001 -0.00000000E+00
  2 16002 -0.00000000E+00
  2 16003 -0.00000000E+00
  2 16004 -0.00000000E+00
  2 16005 -0.00000000E+00
  2 16006 -0.00000000E+00
  2 16037 -0.00000000E+00
  2 16053 -1.25746608E-03
  2 16054 -1.25746608E-03
  2 16055 -0.00000000E+00
  2 16056 -0.00000000E+00
  2 16057 -1.25746608E-03
  2 16058 -1.25746608E-03
  2 16059 -0.00000000E+00
  2 16060 -0.00000000E+00
  2 16061 -0.00000000E+00
  2 16062 -0.00000000E+00
  2 16063 -0.00000000E+00
  2 16064 -0.00000000E+00
  2 16065 -0.00000000E+00
  2 16066 -0.00000000E+00
  2 16067 -0.00000000E+00
  2 16068 -0.00000000E+00
  2 16069 -0.00000000E+00
  2 16070 -0.00000000E+00
  2 16071 -0.00000000E+00
  2 16072 -0.00000000E+00
  2 16073 -8.38310719E-04
  2 16074 -8.38310719E-04
  2 16075 -8.38310719E-04
  2 16077 -4.19155359E-04
  2 16078 -1.25746608E-03
  2 16079 -1.25746608E-03
  2 16080 -1.25746608E-03
  2 16343 -1.25746608E-03
  2 16344 -1.25746608E-03
  2 16345 -1.25746608E-03
  2 16346 -1.25746608E-03
  2 16347 -1.25746608E-03
  2 16348 -1.25746608E-03
  2 16349 -1.25746608E-03
  2 16350 -1.25746608E-03
  2 16351 -1.25746608E-03
  2 16352 -1.25746608E-03
  2 16353 -0.00000000E+00
  2 16354 -0.00000000E+00
  2 16355 -0.00000000E+00
  2 16356 -0.00000000E+00
  2 16357 -0.00000000E+00
  2 16358 -0.00000000E+00
  2 16359 -1.25746608E-03
  2 16360 -1.25746608E-03
  2 16361 -0.00000000E+00
  2 16362 -0.00000000E+00
  2 16363 -0.00000000E+00
  2 16364 -0.00000000E+00
  2 16365 -0.00000000E+00
  2 16366 -0.00000000E+00
  2 16368 -0.00000000E+00
  2 16466 -0.00000000E+00
  2 16467 -0.00000000E+00
  2 16468 -0.00000000E+00
  2 16481 -0.00000000E+00
  2 16492 -1.25746608E-03
  2 16493 -1.25746608E-03
  2 16494 -0.00000000E+00
  2 16495 -0.00000000E+00
  2 16496 -0.00000000E+00
  2 16497 -0.00000000E+00
  2 16498 -0.00000000E+00
  2 16499 -0.00000000E+00
  2 16501 -8.38310719E-04
  2 16502 -1.25746608E-03
  2 16503 -1.25746608E-03
  2 16576 -1.25746608E-03
  2 16577 -8.80226255E-03
  2 16578 -1.25746608E-03
  2 16579 -1.25746608E-03
  2 16580 -2.09577680E-03
  2 16581 -5.86817503E-03
  2 16582 -0.00000000E+00
  2 16583 -1.25746608E-03
  2 16584 -0.00000000E+00
  2 16585 -0.00000000E+00
  2 16606 -4.19155359E-04
  2 16607 -4.19155359E-04
  2 16616 -0.00000000E+00
  2 16617 -0.00000000E+00
  2 16643 -0.00000000E+00
  2 16644 -0.00000000E+00
  2 16645 -0.00000000E+00
  2 16661 -0.00000000E+00
  2 16662 -0.00000000E+00
  2 16663 -0.00000000E+00
  2 16664 -0.00000000E+00
  2 16665 -0.00000000E+00
  2 16666 -0.00000000E+00
  2 16760 -0.00000000E+00
  2 16761 -0.00000000E+00
  2 16776 -2.93408752E-03
  2 16777 -0.00000000E+00
  2 16801 -1.25746608E-03
  2 16802 -0.00000000E+00
  2 16817 -0.00000000E+00
  2 16818 -0.00000000E+00
  2 16831 -0.00000000E+00
  2 16832 -0.00000000E+00
  2 16833 -0.00000000E+00
  2 16834 -0.00000000E+00
  2 16835 -0.00000000E+00
  2 16836 -0.00000000E+00
  2 16899 -8.38310719E-04
  2 16900 -0.00000000E+00
  2 16905 -0.00000000E+00
  2 16906 -0.00000000E+00
  2 16907 -0.00000000E+00
  2 16908 -0.00000000E+00
  2 16909 -1.25746608E-03
  2 16910 -4.19155359E-04
  2 16940 -0.00000000E+00
  2 16941 -0.00000000E+00
  2 16958 -0.00000000E+00
  2 16959 -0.00000000E+00
  2 16960 -0.00000000E+00
  2 16961 -0.00000000E+00
  2 16962 -0.00000000E+00
  2 16963 -0.00000000E+00
  2 17022 -0.00000000E+00
  2 17023 -0.00000000E+00
  2 17028 -0.00000000E+00
  2 17029 -0.00000000E+00
  2 17053 -0.00000000E+00
  2 17054 -0.00000000E+00
  2 17065 -0.00000000E+00
  2 17066 -0.00000000E+00
  2 17112 -0.00000000E+00
  2 17113 -0.00000000E+00
  2 17116 -0.00000000E+00
  2 17117 -0.00000000E+00
  2 17141 -0.00000000E+00
  2 17142 -0.00000000E+00
  2 17182 -0.00000000E+00
  2 17183 -0.00000000E+00
  2 17186 -0.00000000E+00
  2 17187 -0.00000000E+00
  2 17211 -0.00000000E+00
  2 17212 -0.00000000E+00
  2 17240 -0.00000000E+00
  2 17241 -0.00000000E+00
  2 17244 -0.00000000E+00
  2 17245 -0.00000000E+00
  2 17284 -0.00000000E+00
  2 17285 -0.00000000E+00
  2 17288 -0.00000000E+00
  2 17289 -0.00000000E+00
  2 17312 -0.00000000E+00
  2 17329 -0.00000000E+00
  2 17330 -0.00000000E+00
  2 17333 -0.00000000E+00
  2 17334 -0.00000000E+00
  2 17355 -0.00000000E+00
  2 17356 -0.00000000E+00
  2 17382 -0.00000000E+00
  2 17390 -0.00000000E+00
  2 17391 -1.25746608E-03
  2 17420 -4.61070895E-03
  2 17425 -8.38310719E-04
  2 17426 -0.00000000E+00
  2 17427 -0.00000000E+00
  2 17430 -0.00000000E+00
  2 17431 -0.00000000E+00
  2 17434 -1.25746608E-03
  2 17435 -0.00000000E+00
  2 17436 -0.00000000E+00
  2 17437 -1.25746608E-03
  2 17459 -8.38310719E-04
  2 17460 -1.25746608E-03
  2 17461 -1.25746608E-03
  2 17464 -1.25746608E-03
  2 17465 -1.25746608E-03
  2 17466 -3.35324288E-03
  2 17467 -1.67662144E-03
  2 17468 -0.00000000E+00
  2 17491 -0.00000000E+00
  2 17492 -0.00000000E+00
  2 17503 -0.00000000E+00
  2 17504 -0.00000000E+00
  2 17505 -0.00000000E+00
  2 17506 -0.00000000E+00
  2 17531 -0.00000000E+00
  2 17550 -7.54479647E-03
  2 17552 -0.00000000E+00
  2 17553 -0.00000000E+00
  2 17560 -8.38310719E-04
  2 17561 -1.25746608E-03
  2 17562 -0.00000000E+00
  2 17563 -1.25746608E-03
  2 17564 -1.25746608E-03
  2 17578 -0.00000000E+00
  2 17579 -0.00000000E+00
  2 17614 -0.00000000E+00
  2 17615 -0.00000000E+00
  2 17616 -0.00000000E+00
  2 17622 -8.38310719E-04
  2 17623 -8.38310719E-04
  2 17624 -1.25746608E-03
  2 17625 -0.00000000E+00
  2 17642 -0.00000000E+00
  2 17643 -0.00000000E+00
  2 17676 -0.00000000E+00
  2 17677 -0.00000000E+00
  2 17678 -0.00000000E+00
  2 17682 -8.38310719E-04
  2 17683 -8.38310719E-04
  2 17684 -1.25746608E-03
  2 17685 -1.25746608E-03
  2 17686 -1.25746608E-03
  2 17687 -1.25746608E-03
  2 17700 -0.00000000E+00
  2 17701 -0.00000000E+00
  2 17726 -0.00000000E+00
  2 17727 -0.00000000E+00
  2 17728 -0.00000000E+00
  2 17732 -8.38310719E-04
  2 17733 -8.38310719E-04
  2 17734 -1.25746608E-03
  2 17735 -1.25746608E-03
  2 17736 -1.25746608E-03
  2 17737 -1.25746608E-03
  2 17750 -0.00000000E+00
  2 17751 -0.00000000E+00
  2 17772 -8.38310719E-04
  2 17776 -0.00000000E+00
  2 17777 -0.00000000E+00
  2 17778 -1.25746608E-03
  2 17779 -1.25746608E-03
  2 17780 -1.25746608E-03
  2 17781 -1.25746608E-03
  2 17792 -0.00000000E+00
  2 17793 -0.00000000E+00
  2 17812 -0.00000000E+00
  2 17813 -0.00000000E+00
  2 17816 -8.38310719E-04
  2 17817 -8.38310719E-04
  2 17818 -1.25746608E-03
  2 17819 -1.25746608E-03
  2 17820 -1.25746608E-03
  2 17821 -1.25746608E-03
  2 17834 -0.00000000E+00
  2 17835 -0.00000000E+00
  2 17850 -0.00000000E+00
  2 17852 -0.00000000E+00
  2 17853 -0.00000000E+00
  2 17854 -8.38310719E-04
  2 17855 -8.38310719E-04
  2 17856 -1.25746608E-03
  2 17857 -1.25746608E-03
  2 17870 -0.00000000E+00
  2 17871 -0.00000000E+00
  2 17872 -8.38310719E-04
  2 17873 -8.38310719E-04
  2 17881 -0.00000000E+00
  2 17883 -0.00000000E+00
  2 17896 -0.00000000E+00
  2 17897 -0.00000000E+00
  2 17903 -0.00000000E+00
  2 17904 -0.00000000E+00
  2 17917 -0.00000000E+00
  2 17918 -0.00000000E+00
  2 17919 -0.00000000E+00
  2 17920 -0.00000000E+00
  2 17947 -8.38310719E-04
  2 17948 -8.38310719E-04
  2 17949 -8.38310719E-04
  2 17950 -8.38310719E-04
  2 17981 -0.00000000E+00
  2 17987 -0.00000000E+00
  2 17995 -0.00000000E+00
  2 17996 -0.00000000E+00
  2 17997 -0.00000000E+00
  2 18022 -1.25746608E-03
  2 18023 -1.25746608E-03
  2 18024 -0.00000000E+00
  2 18025 -3.77239823E-03
  2 18097 -0.00000000E+00
  2 18098 -0.00000000E+00
  2 18117 -0.00000000E+00
  2 18118 -0.00000000E+00
  2 18143 -0.00000000E+00
  2 18144 -0.00000000E+00
  2 18145 -0.00000000E+00
  2 18146 -0.00000000E+00
  2 18148 -0.00000000E+00
  2 18158 -0.00000000E+00
  2 18160 -0.00000000E+00
  2 18164 -0.00000000E+00
  2 18165 -0.00000000E+00
  2 18186 -1.25746608E-03
  2 18187 -1.25746608E-03
  2 18188 -0.00000000E+00
  2 18189 -8.80226255E-03
  2 18191 -0.00000000E+00
  2 18211 -0.00000000E+00
  2 18212 -0.00000000E+00
  2 18229 -0.00000000E+00
  2 18231 -0.00000000E+00
  2 18232 -0.00000000E+00
  2 18250 -0.00000000E+00
  2 18251 -0.00000000E+00
  2 18285 -0.00000000E+00
  2 18286 -0.00000000E+00
  2 18314 -0.00000000E+00
  2 18315 -0.00000000E+00
  2 18332 -0.00000000E+00
  2 18333 -0.00000000E+00
  2 18340 -0.00000000E+00
  2 18341 -0.00000000E+00
  2 18342 -0.00000000E+00
  2 18343 -0.00000000E+00
  2 18344 -0.00000000E+00
  2 18388 -8.38310719E-04
  2 18389 -8.38310719E-04
  2 18412 -0.00000000E+00
  2 18426 -8.38310719E-04
  2 18427 -0.00000000E+00
  2 18437 -1.25746608E-03
  2 18438 -8.38310719E-04
  2 18439 -8.38310719E-04
  2 18444 -0.00000000E+00
  2 18445 -0.00000000E+00
  2 18462 -8.38310719E-04
  2 18463 -2.93408752E-03
  2 18474 -8.38310719E-04
  2 18475 -8.38310719E-04
  2 18489 -8.38310719E-04
  2 18490 -8.38310719E-04
  2 18499 -8.38310719E-04
  2 18500 -8.38310719E-04
  2 18509 -8.38310719E-04
  2 18510 -8.38310719E-04
  2 18543 -1.25746608E-03
  2 18544 -0.00000000E+00
  2 18545 -4.19155359E-04
  2 18546 -0.00000000E+00
  2 18553 -0.00000000E+00
  2 18555 -0.00000000E+00
  2 18564 -0.00000000E+00
  2 18565 -0.00000000E+00
  2 18572 -0.00000000E+00
  2 18573 -0.00000000E+00
  2 18576 -1.25746608E-03
  2 18577 -0.00000000E+00
  2 18590 -1.25746608E-03
  2 18591 -0.00000000E+00
  2 18609 -0.00000000E+00
  2 18618 -0.00000000E+00
  2 18620 -0.00000000E+00
  2 18621 -0.00000000E+00
  2 18623 -0.00000000E+00
  2 18656 -0.00000000E+00
  2 18657 -0.00000000E+00
  2 18673 -0.00000000E+00
  2 18674 -0.00000000E+00
  2 18725 -3.35324288E-03
  2 18726 -3.35324288E-03
  2 18727 -0.00000000E+00
  2 18728 -0.00000000E+00
  2 18737 -0.00000000E+00
  2 18738 -0.00000000E+00
  2 18743 -0.00000000E+00
  2 18744 -0.00000000E+00
  2 18793 -8.38310719E-04
  2 18794 -8.38310719E-04
  2 18795 -1.25746608E-03
  2 18796 -0.00000000E+00
  2 18799 -3.35324288E-03
  2 18800 -1.25746608E-03
  2 18812 -0.00000000E+00
  2 18813 -0.00000000E+00
  2 18814 -0.00000000E+00
  2 18818 -0.00000000E+00
  2 18820 -0.00000000E+00
  2 18829 -0.00000000E+00
  2 18831 -4.19155359E-04
  2 18847 -8.38310719E-04
  2 18848 -8.38310719E-04
  2 18849 -8.38310719E-04
  2 18850 -8.38310719E-04
  2 18861 -0.00000000E+00
  2 18862 -0.00000000E+00
  2 18913 -0.00000000E+00
  2 18926 -0.00000000E+00
  2 18927 -4.19155359E-04
  2 18976 -0.00000000E+00
  2 18977 -0.00000000E+00
  2 18992 -8.38310719E-04
  2 18993 -8.38310719E-04
  2 18995 -0.00000000E+00
  2 19036 -0.00000000E+00
  2 19037 -3.35324288E-03
  2 19133 -3.35324288E-03
  2 19134 -0.00000000E+00
  2 19135 -0.00000000E+00
  2 19139 -0.00000000E+00
  2 19140 -0.00000000E+00
  2 19147 -0.00000000E+00
  2 19154 -0.00000000E+00
  2 19157 -2.93408752E-03
  2 19158 -0.00000000E+00
  2 19166 -0.00000000E+00
  2 19183 -0.00000000E+00
  2 19184 -3.35324288E-03
  2 19218 -4.19155359E-04
  2 19274 -0.00000000E+00
  2 19275 -0.00000000E+00
  2 19286 -0.00000000E+00
  2 19287 -0.00000000E+00
  2 19288 -0.00000000E+00
  2 19289 -0.00000000E+00
  2 19290 -1.25746608E-03
  2 19291 -1.25746608E-03
  2 19297 -0.00000000E+00
  2 19298 -1.25746608E-03
  2 19327 -0.00000000E+00
  2 19328 -0.00000000E+00
  2 19361 -0.00000000E+00
  2 19363 -0.00000000E+00
  2 19364 -0.00000000E+00
  2 19365 -0.00000000E+00
  2 19366 -0.00000000E+00
  2 19367 -0.00000000E+00
  2 19370 -0.00000000E+00
  2 19371 -0.00000000E+00
  2 19372 -0.00000000E+00
  2 19487 -0.00000000E+00
  2 19488 -0.00000000E+00
  2 19489 -0.00000000E+00
  2 19490 -0.00000000E+00
  2 19491 -0.00000000E+00
  2 19492 -0.00000000E+00
  2 19520 -0.00000000E+00
  2 19521 -0.00000000E+00
  2 19522 -0.00000000E+00
  2 19523 -0.00000000E+00
  2 19524 -0.00000000E+00
  2 19525 -0.00000000E+00
  2 19574 -8.38310719E-04
  2 19575 -0.00000000E+00
  2 19576 -8.38310719E-04
  2 19583 -0.00000000E+00
  2 19584 -0.00000000E+00
  2 19591 -0.00000000E+00
  2 19592 -0.00000000E+00
  2 19593 -0.00000000E+00
  2 19603 -0.00000000E+00
  2 19604 -0.00000000E+00
  2 19605 -0.00000000E+00
  2 19615 -0.00000000E+00
  2 19616 -0.00000000E+00
  2 19617 -0.00000000E+00
  2 19618 -0.00000000E+00
  2 19676 -0.00000000E+00
  2 19687 -8.38310719E-04
  2 19688 -0.00000000E+00
  2 19722 -0.00000000E+00
  2 19725 -0.00000000E+00
  2 19726 -3.35324288E-03
  2 19745 -0.00000000E+00
  2 19746 -0.00000000E+00
  2 19747 -0.00000000E+00
  2 19748 -0.00000000E+00
  2 19749 -0.00000000E+00
  2 19750 -0.00000000E+00
  2 19751 -0.00000000E+00
  2 19752 -0.00000000E+00
  2 19753 -0.00000000E+00
  2 19754 -0.00000000E+00
  2 19755 -0.00000000E+00
  2 19756 -0.00000000E+00
  2 19759 -0.00000000E+00
  2 19760 -0.00000000E+00
  2 19761 -0.00000000E+00
  2 19762 -0.00000000E+00
  2 19763 -0.00000000E+00
  2 19764 -0.00000000E+00
  2 19815 -0.00000000E+00
  2 19816 -0.00000000E+00
  2 19817 -0.00000000E+00
  2 19818 -0.00000000E+00
  2 19819 -0.00000000E+00
  2 19820 -0.00000000E+00
  2 19821 -0.00000000E+00
  2 19822 -0.00000000E+00
  2 19823 -0.00000000E+00
  2 19824 -0.00000000E+00
  2 19825 -0.00000000E+00
  2 19826 -0.00000000E+00
  2 19857 -0.00000000E+00
  2 19858 -0.00000000E+00
  2 19859 -0.00000000E+00
  2 19860 -0.00000000E+00
  2 19861 -0.00000000E+00
  2 19862 -0.00000000E+00
  2 19899 -0.00000000E+00
  2 19900 -0.00000000E+00
  2 19901 -0.00000000E+00
  2 19902 -8.38310719E-04
  2 19903 -8.38310719E-04
  2 19904 -8.38310719E-04
  2 19923 -0.00000000E+00
  2 19924 -0.00000000E+00
  2 19925 -0.00000000E+00
  2 19926 -0.00000000E+00
  2 19927 -0.00000000E+00
  2 19928 -0.00000000E+00
  2 19947 -0.00000000E+00
  2 19948 -0.00000000E+00
  2 19949 -0.00000000E+00
  2 19950 -0.00000000E+00
  2 19951 -0.00000000E+00
  2 19952 -0.00000000E+00
  2 19953 -0.00000000E+00
  2 20029 -0.00000000E+00
  2 20030 -0.00000000E+00
  2 20031 -0.00000000E+00
  2 20032 -0.00000000E+00
  2 20033 -0.00000000E+00
  2 20034 -0.00000000E+00
  2 20035 -0.00000000E+00
  2 20036 -0.00000000E+00
  2 20037 -0.00000000E+00
  2 20038 -0.00000000E+00
  2 20039 -0.00000000E+00
  2 20040 -0.00000000E+00
  2 20041 -0.00000000E+00
  2 20042 -0.00000000E+00
  2 20043 -8.38310719E-04
  2 20044 -0.00000000E+00
  2 20045 -0.00000000E+00
  2 20046 -0.00000000E+00
  2 20047 -0.00000000E+00
  2 20048 -0.00000000E+00
  2 20049 -0.00000000E+00
  2 20050 -0.00000000E+00
  2 20051 -0.00000000E+00
  2 20052 -0.00000000E+00
  2 20053 -0.00000000E+00
  2 20054 -0.00000000E+00
  2 20055 -0.00000000E+00
  2 20056 -0.00000000E+00
  2 20057 -0.00000000E+00
  2 20058 -0.00000000E+00
  2 20059 -0.00000000E+00
  2 20060 -0.00000000E+00
  2 20061 -0.00000000E+00
  2 20062 -0.00000000E+00
  2 20063 -0.00000000E+00
  2 20064 -0.00000000E+00
  2 20113 -0.00000000E+00
  2 20114 -0.00000000E+00
  2 20115 -0.00000000E+00
  2 20116 -0.00000000E+00
  2 20117 -0.00000000E+00
  2 20118 -0.00000000E+00
  2 20119 -0.00000000E+00
  2 20120 -0.00000000E+00
  2 20121 -0.00000000E+00
  2 20122 -0.00000000E+00
  2 20123 -0.00000000E+00
  2 20124 -0.00000000E+00
  2 20125 -0.00000000E+00
  2 20126 -0.00000000E+00
  2 20127 -0.00000000E+00
  2 20128 -0.00000000E+00
  2 20129 -0.00000000E+00
  2 20130 -0.00000000E+00
  2 20131 -0.00000000E+00
  2 20132 -0.00000000E+00
  2 20133 -0.00000000E+00
  2 20134 -0.00000000E+00
  2 20135 -0.00000000E+00
  2 20136 -0.00000000E+00
  2 20185 -0.00000000E+00
  2 20186 -0.00000000E+00
  2 20187 -0.00000000E+00