# File generated by Flopy version 3.9.1 on 02/10/2026 at 00:15:05.
BEGIN options
  FIXED_CELL
  PRINT_FLOWS
  SAVE_FLOWS
END options

BEGIN dimensions
  MAXBOUND  32515
END dimensions

BEGIN period  1
  1 1 9.04427512E-09
  1 2 9.03753482E-09
  1 3 9.00103941E-09
  1 4 9.02101939E-09
  1 5 9.00112210E-09
  1 6 9.00118867E-09
  1 7 9.01722762E-09
  1 8 9.14407228E-09
  1 9 8.96695825E-09
  1 10 9.00088402E-09
  1 11 9.00085105E-09
  1 12 9.00101738E-09
  1 13 9.00091236E-09
  1 14 9.00087816E-09
  1 15 9.00092593E-09
  1 16 9.00075292E-09
  1 17 9.00103956E-09
  1 18 9.00083143E-09
  1 19 9.09350780E-09
  1 20 9.10592670E-09
  1 21 9.03682234E-09
  1 22 9.03603574E-09
  1 23 9.00089326E-09
  1 24 9.03613920E-09
  1 25 9.06000318E-09
  1 26 9.04411042E-09
  1 27 9.03562722E-09
  1 28 9.00087886E-09
  1 29 9.03605084E-09
  1 30 9.03554188E-09
  1 31 9.03582652E-09
  1 32 9.03589344E-09
  1 33 9.00080563E-09
  1 34 9.03570552E-09
  1 35 9.03591144E-09
  1 36 8.96684258E-09
  1 37 9.00108703E-09
  1 38 9.14585224E-09
  1 39 7.57983653E-09
  1 40 8.72249911E-09
  1 41 9.00068752E-09
  1 42 9.00085180E-09
  1 43 9.00081207E-09
  1 44 9.00082309E-09
  1 45 9.00075450E-09
  1 46 9.00072454E-09
  1 47 9.00095296E-09
  1 48 9.00071798E-09
  1 49 8.99419573E-09
  1 50 9.00080689E-09
  1 51 8.96934930E-09
  1 52 9.00550683E-09
  1 53 9.00099236E-09
  1 54 9.00093779E-09
  1 55 9.00075631E-09
  1 56 9.00082716E-09
  1 57 9.00096188E-09
  1 58 9.00084678E-09
  1 59 8.96729463E-09
  1 60 9.00646031E-09
  1 61 9.00069689E-09
  1 62 8.96729879E-09
  1 63 8.96734254E-09
  1 64 8.96733428E-09
  1 65 8.96721831E-09
  1 66 8.96728470E-09
  1 67 8.96700416E-09
  1 68 8.96727802E-09
  1 69 8.96719580E-09
  1 70 8.96720560E-09
  1 71 8.96712674E-09
  1 72 8.96702117E-09
  1 73 8.96693809E-09
  1 74 8.96687923E-09
  1 75 8.96698892E-09
  1 76 8.96698204E-09
  1 77 8.96723016E-09
  1 78 8.96709344E-09
  1 79 9.00077264E-09
  1 80 8.96705281E-09
  1 81 9.00112364E-09
  1 82 8.99368878E-09
  1 83 9.03574992E-09
  1 84 6.88962179E-09
  1 85 9.13995209E-09
  1 86 9.13282564E-09
  1 87 9.12974898E-09
  1 88 9.13810198E-09
  1 89 9.12963661E-09
  1 90 9.12926299E-09
  1 91 9.12311437E-09
  1 92 9.13052167E-09
  1 93 9.12149230E-09
  1 94 9.12925686E-09
  1 95 9.12947448E-09
  1 96 9.12196378E-09
  1 97 9.12132694E-09
  1 98 9.12874989E-09
  1 99 9.12174655E-09
  1 100 9.10866478E-09
  1 101 5.92929166E-09
  1 102 9.12564693E-09
  1 103 9.12134736E-09
  1 104 9.12161476E-09
  1 105 9.10084018E-09
  1 106 9.12085049E-09
  1 107 6.42616904E-09
  1 108 9.11860219E-09
  1 109 9.47343140E-09
  1 110 9.11933515E-09
  1 111 9.07872823E-09
  1 112 9.07856036E-09
  1 113 9.08306712E-09
  1 114 9.07617910E-09
  1 115 9.07336197E-09
  1 116 9.07836565E-09
  1 117 8.97884590E-09
  1 118 9.07363891E-09
  1 119 9.07701429E-09
  1 120 9.07815817E-09
  1 121 9.47061963E-09
  1 122 9.12063480E-09
  1 123 7.83956598E-09
  1 124 9.07668967E-09
  1 125 9.03649287E-09
  1 126 9.03677429E-09
  1 127 9.07284538E-09
  1 128 9.07305392E-09
  1 129 9.07252378E-09
  1 130 9.03671233E-09
  1 131 9.07796122E-09
  1 132 9.07244557E-09
  1 133 9.03608760E-09
  1 134 9.03603059E-09
  1 135 9.03634797E-09
  1 136 9.03562380E-09
  1 137 9.03628130E-09
  1 138 9.03615206E-09
  1 139 9.03662129E-09
  1 140 9.03651971E-09
  1 141 9.03630263E-09
  1 142 9.03643083E-09
  1 143 9.07760643E-09
  1 144 9.04304247E-09
  1 145 9.07258670E-09
  1 146 9.07268343E-09
  1 147 9.07329674E-09
  1 148 9.07284771E-09
  1 149 9.07318062E-09
  1 150 9.07222534E-09
  1 151 9.07283590E-09
  1 152 9.07264511E-09
  1 153 9.07271003E-09
  1 154 9.07285851E-09
  1 155 9.07245098E-09
  1 156 9.07224958E-09
  1 157 9.07271387E-09
  1 158 9.07283824E-09
  1 159 9.03558492E-09
  1 160 9.07240453E-09
  1 161 9.07354356E-09
  1 162 9.07246743E-09
  1 163 8.72388531E-09
  1 164 9.07278925E-09
  1 165 9.07303463E-09
  1 166 9.03600079E-09
  1 167 9.07297929E-09
  1 168 9.12146060E-09
  1 169 8.72140331E-09
  1 170 9.07320107E-09
  1 171 8.98164973E-09
  1 172 8.97448675E-09
  1 173 8.96717123E-09
  1 174 8.96690767E-09
  1 175 8.96689601E-09
  1 176 8.96689545E-09
  1 177 8.96691042E-09
  1 178 8.96669938E-09
  1 179 8.84176353E-09
  1 180 8.45007003E-09
  1 181 8.96677294E-09
  1 182 8.91240734E-09
  1 183 8.96665819E-09
  1 184 8.98429899E-09
  1 185 8.96676231E-09
  1 186 8.98387069E-09
  1 187 8.96691736E-09
  1 188 8.99364692E-09
  1 189 8.96681196E-09
  1 190 8.96675247E-09
  1 191 8.96672483E-09
  1 192 8.96670288E-09
  1 193 8.96666360E-09
  1 194 8.96671267E-09
  1 195 8.96675715E-09
  1 196 8.96669716E-09
  1 197 8.96669639E-09
  1 198 8.96672269E-09
  1 199 8.96661879E-09
  1 200 8.98441766E-09
  1 201 8.98342278E-09
  1 202 8.98339373E-09
  1 203 8.98313135E-09
  1 204 8.98344685E-09
  1 205 8.96667673E-09
  1 206 8.96665274E-09
  1 207 8.96673854E-09
  1 208 8.96676203E-09
  1 209 8.96686835E-09
  1 210 8.98281034E-09
  1 211 8.98276637E-09
  1 212 8.98236476E-09
  1 213 8.98252900E-09
  1 214 8.98242595E-09
  1 215 8.98245785E-09
  1 216 8.98279276E-09
  1 217 8.98231310E-09
  1 218 8.98282393E-09
  1 219 8.82507729E-09
  1 220 8.98211066E-09
  1 221 8.98269285E-09
  1 222 8.84404806E-09
  1 223 8.98256705E-09
  1 224 8.98223677E-09
  1 225 8.98218343E-09
  1 226 8.98262164E-09
  1 227 8.98236145E-09
  1 228 8.98253214E-09
  1 229 8.98303420E-09
  1 230 8.98241644E-09
  1 231 8.98322789E-09
  1 232 8.98261335E-09
  1 233 8.98351667E-09
  1 234 8.98401979E-09
  1 235 8.98409672E-09
  1 236 8.98336554E-09
  1 237 8.98279579E-09
  1 238 8.98370112E-09
  1 239 8.98409056E-09
  1 240 8.98413479E-09
  1 241 8.98361826E-09
  1 242 8.98423724E-09
  1 243 8.98314328E-09
  1 244 8.98458609E-09
  1 245 8.98419887E-09
  1 246 8.98403949E-09
  1 247 8.98371786E-09
  1 248 8.98306448E-09
  1 249 8.98341122E-09
  1 250 8.98304709E-09
  1 251 8.98263406E-09
  1 252 9.00654098E-09
  1 253 8.72521173E-09
  1 254 7.43291453E-09
  1 255 9.04084535E-09
  1 256 9.04274435E-09
  1 257 9.04182538E-09
  1 258 9.04174071E-09
  1 259 9.04085730E-09
  1 260 9.04155878E-09
  1 261 9.04197875E-09
  1 262 9.04231776E-09
  1 263 9.04343563E-09
  1 264 9.04536501E-09
  1 265 9.04186409E-09
  1 266 9.10230062E-09
  1 267 9.04160704E-09
  1 268 9.04278973E-09
  1 269 9.04636180E-09
  1 270 9.04386960E-09
  1 271 9.03916104E-09
  1 272 9.04322932E-09
  1 273 9.03827472E-09
  1 274 9.03756001E-09
  1 275 9.03811752E-09
  1 276 8.96677831E-09
  1 277 9.03758671E-09
  1 278 9.03969172E-09
  1 279 9.03809440E-09
  1 280 9.03839051E-09
  1 281 9.03849929E-09
  1 282 9.04096951E-09
  1 283 9.03640402E-09
  1 284 9.03879537E-09
  1 285 9.03922504E-09
  1 286 9.03694973E-09
  1 287 9.03660481E-09
  1 288 9.03818870E-09
  1 289 9.03703801E-09
  1 290 9.04011843E-09
  1 291 9.03740615E-09
  1 292 9.03905175E-09
  1 293 9.03703237E-09
  1 294 9.04579799E-09
  1 295 9.10202665E-09
  1 296 9.10208854E-09
  1 297 9.10386911E-09
  1 298 9.10281032E-09
  1 299 9.10322396E-09
  1 300 9.10143625E-09
  1 301 9.10352728E-09
  1 302 9.10262928E-09
  1 303 9.10483662E-09
  1 304 9.10469516E-09
  1 305 9.10369660E-09
  1 306 9.10448322E-09
  1 307 9.43195928E-09
  1 308 9.43195035E-09
  1 309 9.43199612E-09
  1 310 9.10504926E-09
  1 311 9.10422286E-09
  1 312 9.43165670E-09
  1 313 9.38363454E-09
  1 314 8.98260954E-09
  1 315 9.39823719E-09
  1 316 9.43447996E-09
  1 317 9.43789974E-09
  1 318 9.43264981E-09
  1 319 9.04353527E-09
  1 320 9.04436500E-09
  1 321 9.04629495E-09
  1 322 9.43700540E-09
  1 323 9.43512246E-09
  1 324 9.43569298E-09
  1 325 9.43503179E-09
  1 326 9.43860547E-09
  1 327 9.43777192E-09
  1 328 9.43879064E-09
  1 329 9.43386925E-09
  1 330 9.43916480E-09
  1 331 9.43330622E-09
  1 332 9.43936409E-09
  1 333 9.43719733E-09
  1 334 9.43882358E-09
  1 335 9.04660957E-09
  1 336 9.10159430E-09
  1 337 9.06251513E-09
  1 338 9.03939319E-09
  1 339 9.03705108E-09
  1 340 9.44129854E-09
  1 341 9.07254107E-09
  1 342 9.46431986E-09
  1 343 9.01707163E-09
  1 344 6.90921585E-09
  1 345 9.13230896E-09
  1 346 9.13189443E-09
  1 347 9.35608054E-09
  1 348 9.13184801E-09
  1 349 9.06748478E-09
  1 350 7.77144805E-09
  1 351 9.13340210E-09
  1 352 9.13328695E-09
  1 353 9.13248832E-09
  1 354 9.13317071E-09
  1 355 9.13362261E-09
  1 356 9.13300157E-09
  1 357 9.13291708E-09
  1 358 9.13313909E-09
  1 359 9.18241710E-09
  1 360 9.13349830E-09
  1 361 8.94242105E-09
  1 362 8.93708100E-09
  1 363 8.93975191E-09
  1 364 8.93736181E-09
  1 365 8.93703253E-09
  1 366 8.93758243E-09
  1 367 8.93768587E-09
  1 368 8.93789650E-09
  1 369 9.13173768E-09
  1 370 9.13155804E-09
  1 371 9.13102865E-09
  1 372 9.13258943E-09
  1 373 9.04251461E-09
  1 374 9.13137535E-09
  1 375 8.94384714E-09
  1 376 9.13134318E-09
  1 377 8.95812798E-09
  1 378 9.00580520E-09
  1 379 8.93744135E-09
  1 380 8.93364198E-09
  1 381 6.93895672E-09
  1 382 9.36170812E-09
  1 383 9.13620746E-09
  1 384 9.13437036E-09
  1 385 9.18309874E-09
  1 386 9.18284266E-09
  1 387 9.24893432E-09
  1 388 9.18268710E-09
  1 389 9.16136363E-09
  1 390 7.73742704E-09
  1 391 9.18383134E-09
  1 392 9.18386552E-09
  1 393 9.18387594E-09
  1 394 9.20626132E-09
  1 395 9.18319250E-09
  1 396 9.18378060E-09
  1 397 9.18339791E-09
  1 398 9.19854339E-09
  1 399 9.18336734E-09
  1 400 9.18364420E-09
  1 401 9.22178313E-09
  1 402 9.18359058E-09
  1 403 9.15463232E-09
  1 404 9.13353091E-09
  1 405 9.13355869E-09
  1 406 9.13334975E-09
  1 407 9.17900520E-09
  1 408 9.13350170E-09
  1 409 9.13580935E-09
  1 410 9.13359596E-09
  1 411 9.18254297E-09
  1 412 9.18269721E-09
  1 413 9.18245494E-09
  1 414 9.18189747E-09
  1 415 9.18199221E-09
  1 416 9.13381881E-09
  1 417 9.18206941E-09
  1 418 9.18222084E-09
  1 419 9.18176066E-09
  1 420 9.18177765E-09
  1 421 9.18206904E-09
  1 422 9.13566603E-09
  1 423 9.13219651E-09
  1 424 9.18327415E-09
  1 425 9.28406440E-09
  1 426 8.89611972E-09
  1 427 8.70334361E-09
  1 428 5.66344377E-09
  1 429 8.67835037E-09
  1 430 7.69003035E-09
  1 431 8.67344847E-09
  1 432 8.72076567E-09
  1 433 8.66652791E-09
  1 434 8.69064607E-09
  1 435 8.81207522E-09
  1 436 8.77730886E-09
  1 437 8.74415667E-09
  1 438 8.74384138E-09
  1 439 8.73883261E-09
  1 440 8.73138470E-09
  1 441 8.72392513E-09
  1 442 8.93755451E-09
  1 443 8.68683762E-09
  1 444 8.86210927E-09
  1 445 8.66655611E-09
  1 446 8.66731416E-09
  1 447 8.66028216E-09
  1 448 8.66110937E-09
  1 449 8.66066292E-09
  1 450 8.66101943E-09
  1 451 8.66090500E-09
  1 452 8.66009475E-09
  1 453 8.65970818E-09
  1 454 8.65983366E-09
  1 455 8.66013029E-09
  1 456 8.65958997E-09
  1 457 8.66017918E-09
  1 458 8.66000474E-09
  1 459 8.65924108E-09
  1 460 8.66078836E-09
  1 461 8.66014087E-09
  1 462 8.65409116E-09
  1 463 8.66052160E-09
  1 464 8.67218116E-09
  1 465 8.65959904E-09
  1 466 9.13137369E-09
  1 467 8.93729255E-09
  1 468 8.93722413E-09
  1 469 8.92625476E-09
  1 470 8.93716315E-09
  1 471 8.93695224E-09
  1 472 8.93743840E-09
  1 473 8.93742017E-09
  1 474 8.93736043E-09
  1 475 8.93867361E-09
  1 476 8.93679260E-09
  1 477 8.93697883E-09
  1 478 8.93847840E-09
  1 479 8.93745345E-09
  1 480 8.93742138E-09
  1 481 8.93791419E-09
  1 482 8.93773790E-09
  1 483 8.93710846E-09
  1 484 8.93729212E-09
  1 485 8.93713984E-09
  1 486 8.93753655E-09
  1 487 8.93824102E-09
  1 488 8.93718638E-09
  1 489 8.93772178E-09
  1 490 8.93762029E-09
  1 491 8.91102886E-09
  1 492 8.93829024E-09
  1 493 8.93768263E-09
  1 494 8.93842299E-09
  1 495 8.93921366E-09
  1 496 8.93933726E-09
  1 497 8.93848781E-09
  1 498 8.93861176E-09
  1 499 8.93905793E-09
  1 500 8.93890572E-09
  1 501 8.93783482E-09
  1 502 8.89397291E-09
  1 503 8.93878026E-09
  1 504 8.88690236E-09
  1 505 8.93822787E-09
  1 506 8.93802722E-09
  1 507 8.90608447E-09
  1 508 9.12494735E-09
  1 509 8.93908940E-09
  1 510 4.11198616E-09
  1 511 5.27164024E-09
  1 512 7.02411988E-09
  1 513 7.92366075E-09
  1 514 9.40832854E-09
  1 515 9.42803239E-09
  1 516 9.38361084E-09
  1 517 9.36035868E-09
  1 518 9.42453360E-09
  1 519 9.08633488E-09
  1 520 7.92206458E-09
  1 521 7.92006333E-09
  1 522 7.92163042E-09
  1 523 7.92092854E-09
  1 524 8.71940544E-09
  1 525 7.92301647E-09
  1 526 7.91973853E-09
  1 527 7.92119083E-09
  1 528 7.92070380E-09
  1 529 7.91883539E-09
  1 530 8.72102841E-09
  1 531 7.92007438E-09
  1 532 7.92111214E-09
  1 533 9.28135495E-09
  1 534 9.29503107E-09
  1 535 9.18315716E-09
  1 536 9.55009720E-09
  1 537 7.92170150E-09
  1 538 9.20404767E-09
  1 539 7.92053018E-09
  1 540 7.92199201E-09
  1 541 7.92271310E-09
  1 542 7.92116295E-09
  1 543 7.91953041E-09
  1 544 7.92238668E-09
  1 545 7.92193672E-09
  1 546 7.91997563E-09
  1 547 7.92228490E-09
  1 548 7.92103770E-09
  1 549 7.92057657E-09
  1 550 9.55016830E-09
  1 551 8.90287375E-09
  1 552 7.91957458E-09
  1 553 8.73033048E-09
  1 554 8.73357574E-09
  1 555 8.72989396E-09
  1 556 8.73271335E-09
  1 557 8.73073585E-09
  1 558 8.72995768E-09
  1 559 8.72414156E-09
  1 560 8.72642566E-09
  1 561 8.73282228E-09
  1 562 8.73497540E-09
  1 563 8.73290144E-09
  1 564 8.73621433E-09
  1 565 8.73101736E-09
  1 566 8.73453726E-09
  1 567 8.73212473E-09
  1 568 8.73159247E-09
  1 569 8.73491345E-09
  1 570 8.72315048E-09
  1 571 8.72858690E-09
  1 572 8.73436379E-09
  1 573 8.72885715E-09
  1 574 8.72286044E-09
  1 575 8.72468287E-09
  1 576 8.71943562E-09
  1 577 8.71864512E-09
  1 578 8.72388453E-09
  1 579 8.72169913E-09
  1 580 8.72550530E-09
  1 581 8.72616087E-09
  1 582 8.96665992E-09
  1 583 8.72791190E-09
  1 584 8.72172124E-09
  1 585 8.73517444E-09
  1 586 8.92391451E-09
  1 587 9.01751903E-09
  1 588 8.73420493E-09
  1 589 9.00042288E-09
  1 590 8.72571738E-09
  1 591 8.43334078E-09
  1 592 8.72459453E-09
  1 593 8.73046437E-09
  1 594 9.05297919E-09
  1 595 7.91992850E-09
  1 596 9.07304638E-09
  1 597 9.39288337E-09
  1 598 9.18391900E-09
  1 599 9.36074005E-09
  1 600 9.31612569E-09
  1 601 9.36045840E-09
  1 602 9.36025171E-09
  1 603 9.23303571E-09
  1 604 9.38561077E-09
  1 605 9.36147027E-09
  1 606 9.36047540E-09
  1 607 9.55058821E-09
  1 608 9.55052072E-09
  1 609 9.36140252E-09
  1 610 9.36082565E-09
  1 611 9.36161649E-09
  1 612 9.36196417E-09
  1 613 9.36114903E-09
  1 614 9.36164378E-09
  1 615 9.37547865E-09
  1 616 9.36171162E-09
  1 617 9.18398588E-09
  1 618 9.18429847E-09
  1 619 9.51574938E-09
  1 620 9.18211044E-09
  1 621 9.36055849E-09
  1 622 9.13160816E-09
  1 623 9.18288696E-09
  1 624 9.55052326E-09
  1 625 9.55061853E-09
  1 626 9.55049331E-09
  1 627 9.55053200E-09
  1 628 9.55077261E-09
  1 629 9.55069558E-09
  1 630 9.55057493E-09
  1 631 9.55059549E-09
  1 632 9.55072364E-09
  1 633 9.55067661E-09
  1 634 9.55072170E-09
  1 635 9.36108601E-09
  1 636 9.36188290E-09
  1 637 9.18416632E-09
  1 638 9.55056020E-09
  1 639 9.43269752E-09
  1 640 9.43170005E-09
  1 641 9.55068558E-09
  1 642 9.55041612E-09
  1 643 9.55052578E-09
  1 644 9.43073228E-09
  1 645 9.43903510E-09
  1 646 9.55079723E-09
  1 647 7.92516556E-09
  1 648 8.04703504E-09
  1 649 9.43160071E-09
  1 650 9.25224091E-09
  1 651 9.43195745E-09
  1 652 9.43099514E-09
  1 653 9.43210412E-09
  1 654 9.43241428E-09
  1 655 9.43060702E-09
  1 656 9.43033949E-09
  1 657 9.55066439E-09
  1 658 9.43126024E-09
  1 659 9.55068671E-09
  1 660 9.55058098E-09
  1 661 9.55095050E-09
  1 662 9.55065487E-09
  1 663 9.55068605E-09
  1 664 9.55061560E-09
  1 665 9.55081016E-09
  1 666 9.55082117E-09
  1 667 9.55101972E-09
  1 668 9.55076033E-09
  1 669 9.55083397E-09
  1 670 9.55113088E-09
  1 671 9.42342316E-09
  1 672 9.55098737E-09
  1 673 9.55109615E-09
  1 674 9.55086474E-09
  1 675 9.36132240E-09
  1 676 9.55076219E-09
  1 677 9.55072234E-09
  1 678 9.55064932E-09
  1 679 9.55040453E-09
  1 680 7.90873732E-09
  1 681 9.54909755E-09
  1 682 9.19568906E-09
  1 683 9.18364606E-09
  1 684 9.48646549E-09
  1 685 9.55631973E-09
  1 686 8.73086124E-09
  1 687 5.23278579E-09
  1 688 9.08372521E-09
  1 689 9.89456059E-09
  1 690 9.46181074E-09
  1 691 7.22151154E-09
  1 692 7.36324899E-09
  1 693 1.11102117E-08
  1 694 7.52293424E-09
  1 695 9.71272062E-09
  1 696 5.67210205E-09
  1 697 1.02055915E-08
  1 698 7.67944836E-09
  1 699 1.07182802E-08
  1 700 5.65535316E-09
  1 701 1.09401589E-08
  1 702 1.04954167E-08
  1 703 6.68176287E-09
  1 704 1.09030531E-08
  1 705 1.13588642E-08
  1 706 1.00666150E-08
  1 707 1.08981894E-08
  1 708 7.42875228E-09
  1 709 1.09415412E-08
  1 710 7.77174515E-09
  1 711 5.84895830E-09
  1 712 1.09145253E-08
  1 713 7.64065095E-09
  1 714 7.61132117E-09
  1 715 1.14258066E-08
  1 716 1.10761669E-08
  1 717 6.15596754E-09
  1 718 1.14952450E-08
  1 719 1.14271124E-08
  1 720 6.60745484E-09
  1 721 5.51523667E-09
  1 722 1.14293718E-08
  1 723 7.18168993E-09
  1 724 1.15584798E-08
  1 725 7.06756415E-09
  1 726 1.09129636E-08
  1 727 9.13211427E-09
  1 728 1.15202610E-08
  1 729 8.66904263E-09
  1 730 7.01984168E-09
  1 731 7.08040406E-09
  1 732 9.61002019E-09
  1 733 8.62626147E-09
  1 734 7.09628493E-09
  1 735 5.05222162E-09
  1 736 8.78125893E-09
  1 737 8.74412471E-09
  1 738 8.81192856E-09
  1 739 6.93529661E-09
  1 740 8.34268849E-09
  1 741 8.50390694E-09
  1 742 8.51880960E-09
  1 743 1.01322072E-08
  1 744 8.44033667E-09
  1 745 8.82524821E-09
  1 746 9.87598208E-09
  1 747 1.06140166E-08
  1 748 5.74638775E-09
  1 749 1.16154845E-08
  1 750 5.92270053E-09
  1 751 6.87136172E-09
  1 752 6.40862215E-09
  1 753 1.03841257E-08
  1 754 1.12408437E-08
  1 755 6.73991888E-09
  1 756 1.15036034E-08
  1 757 1.00570371E-08
  1 758 1.01901398E-08
  1 759 1.01675647E-08
  1 760 1.00934053E-08
  1 761 1.02844244E-08
  1 762 1.02309018E-08
  1 763 1.02379379E-08
  1 764 1.01176421E-08
  1 765 1.07264047E-08
  1 766 1.00605843E-08
  1 767 6.72093292E-09
  1 768 1.17601599E-08
  1 769 1.11493733E-08
  1 770 1.00988717E-08
  1 771 7.44079786E-09
  1 772 7.43406577E-09
  1 773 8.83597991E-09
  1 774 8.96755128E-09
  1 775 9.25404897E-09
  1 776 9.25308880E-09
  1 777 9.22604860E-09
  1 778 8.67435225E-09
  1 779 9.26839200E-09
  1 780 9.25258230E-09
  1 781 9.25174951E-09
  1 782 9.25437787E-09
  1 783 9.25478091E-09
  1 784 9.25860718E-09
  1 785 9.26206547E-09
  1 786 9.25784374E-09
  1 787 9.26412146E-09
  1 788 9.25475174E-09
  1 789 9.27353970E-09
  1 790 9.25164554E-09
  1 791 9.27104702E-09
  1 792 9.26791380E-09
  1 793 9.27076720E-09
  1 794 9.25698993E-09
  1 795 9.27493365E-09
  1 796 9.27107233E-09
  1 797 9.26661965E-09
  1 798 9.27167165E-09
  1 799 9.26330184E-09
  1 800 9.25946433E-09
  1 801 9.26573458E-09
  1 802 9.26487338E-09
  1 803 9.26418657E-09
  1 804 9.26493107E-09
  1 805 9.26879051E-09
  1 806 9.26800051E-09
  1 807 9.26579062E-09
  1 808 9.26634315E-09
  1 809 9.27053150E-09
  1 810 9.27230419E-09
  1 811 9.10320869E-09
  1 812 8.77008404E-09
  1 813 1.03845552E-08
  1 814 6.10308210E-09
  1 815 6.55166376E-09
  1 816 6.54950008E-09
  1 817 6.55933882E-09
  1 818 6.55575307E-09
  1 819 8.02630706E-09
  1 820 6.55734369E-09
  1 821 6.52855097E-09
  1 822 6.52501979E-09
  1 823 6.53368832E-09
  1 824 5.63354027E-09
  1 825 6.54543378E-09
  1 826 6.53367824E-09
  1 827 6.52447791E-09
  1 828 6.54806685E-09
  1 829 6.55549617E-09
  1 830 6.53943797E-09
  1 831 6.55191957E-09
  1 832 8.27868339E-09
  1 833 8.31569238E-09
  1 834 9.26037434E-09
  1 835 8.32209198E-09
  1 836 9.25835734E-09
  1 837 9.25600203E-09
  1 838 8.31998416E-09
  1 839 8.31745194E-09
  1 840 8.31509912E-09
  1 841 6.56388807E-09
  1 842 6.55903608E-09
  1 843 6.57342404E-09
  1 844 6.52352513E-09
  1 845 8.31881663E-09
  1 846 8.31187674E-09
  1 847 8.31462529E-09
  1 848 8.31753497E-09
  1 849 8.31430868E-09
  1 850 6.56393459E-09
  1 851 8.24511325E-09
  1 852 8.31188105E-09
  1 853 9.26116640E-09
  1 854 9.93454051E-09
  1 855 7.72328731E-09
  1 856 7.63582651E-09
  1 857 8.76681815E-09
  1 858 7.82051763E-09
  1 859 9.93314385E-09
  1 860 1.00379504E-08
  1 861 1.00014589E-08
  1 862 1.01295074E-08
  1 863 9.83847426E-09
  1 864 9.96622952E-09
  1 865 9.84660719E-09
  1 866 9.90039176E-09
  1 867 8.30171734E-09
  1 868 9.77616193E-09
  1 869 9.80906851E-09
  1 870 9.85701968E-09
  1 871 9.86478341E-09
  1 872 9.71514895E-09
  1 873 9.92694260E-09
  1 874 9.79758969E-09
  1 875 9.95083439E-09
  1 876 9.95530025E-09
  1 877 8.04224101E-09
  1 878 8.09411798E-09
  1 879 8.05997359E-09
  1 880 8.00843279E-09
  1 881 8.17132576E-09
  1 882 8.03108040E-09
  1 883 1.00144018E-08
  1 884 8.11574391E-09
  1 885 8.31111899E-09
  1 886 8.19886684E-09
  1 887 8.34034984E-09
  1 888 8.34276335E-09
  1 889 8.25820849E-09
  1 890 8.35629027E-09
  1 891 8.33761555E-09
  1 892 8.30470099E-09
  1 893 8.26300096E-09
  1 894 8.37727957E-09
  1 895 8.31901853E-09
  1 896 9.87931167E-09
  1 897 7.99090314E-09
  1 898 8.31611497E-09
  1 899 8.38588742E-09
  1 900 8.36415336E-09
  1 901 8.38467784E-09
  1 902 8.31012392E-09
  1 903 8.40842207E-09
  1 904 8.37060741E-09
  1 905 8.33060035E-09
  1 906 8.39445552E-09
  1 907 8.39294856E-09
  1 908 8.40187986E-09
  1 909 8.39607000E-09
  1 910 8.43262408E-09
  1 911 8.39598399E-09
  1 912 8.38059911E-09
  1 913 8.36771680E-09
  1 914 8.44686627E-09
  1 915 8.34292742E-09
  1 916 8.42266782E-09
  1 917 8.40880834E-09
  1 918 8.35937971E-09
  1 919 8.41421391E-09
  1 920 8.37563983E-09
  1 921 8.42668079E-09
  1 922 8.41968790E-09
  1 923 8.39400755E-09
  1 924 8.43706689E-09
  1 925 8.39218257E-09
  1 926 8.41867535E-09
  1 927 8.47259990E-09
  1 928 8.45012713E-09
  1 929 8.48984291E-09
  1 930 8.41834510E-09
  1 931 8.49110268E-09
  1 932 8.47532829E-09
  1 933 8.44728238E-09
  1 934 8.52006787E-09
  1 935 8.43679385E-09
  1 936 8.46014917E-09
  1 937 8.47384198E-09
  1 938 8.39633330E-09
  1 939 8.32812959E-09
  1 940 8.52817545E-09
  1 941 8.10811865E-09
  1 942 8.38837351E-09
  1 943 7.91636655E-09
  1 944 7.91105066E-09
  1 945 7.89236690E-09
  1 946 7.87586115E-09
  1 947 7.92201912E-09
  1 948 7.90478351E-09
  1 949 7.85896451E-09
  1 950 7.95430064E-09
  1 951 7.98021347E-09
  1 952 7.95713453E-09
  1 953 7.98193124E-09
  1 954 7.95976014E-09
  1 955 8.00594666E-09
  1 956 7.95554131E-09
  1 957 7.95786958E-09
  1 958 7.98388210E-09
  1 959 7.98429493E-09
  1 960 7.89373163E-09
  1 961 7.91511037E-09
  1 962 7.88894176E-09
  1 963 7.97254531E-09
  1 964 7.89249583E-09
  1 965 8.10419638E-09
  1 966 7.93572226E-09
  1 967 7.87076830E-09
  1 968 7.94196531E-09
  1 969 8.00391570E-09
  1 970 7.97358516E-09
  1 971 7.99660467E-09
  1 972 8.02370795E-09
  1 973 8.01432033E-09
  1 974 8.00369993E-09
  1 975 8.02647774E-09
  1 976 8.03742224E-09
  1 977 7.97017913E-09
  1 978 8.06756608E-09
  1 979 7.99209292E-09
  1 980 7.85522477E-09
  1 981 7.87705110E-09
  1 982 8.06792858E-09
  1 983 8.13798299E-09
  1 984 8.09226879E-09
  1 985 8.13715449E-09
  1 986 8.11936283E-09
  1 987 8.04428135E-09
  1 988 8.16424587E-09
  1 989 8.00905840E-09
  1 990 8.09369037E-09
  1 991 8.27337457E-09
  1 992 8.24889753E-09
  1 993 8.27595936E-09
  1 994 8.28098912E-09
  1 995 8.18563638E-09
  1 996 8.21073802E-09
  1 997 8.15782421E-09
  1 998 8.22853660E-09
  1 999 8.17945033E-09
  1 1000 8.27038163E-09
  1 1001 8.20925526E-09
  1 1002 8.04460762E-09
  1 1003 8.16218201E-09
  1 1004 8.08639826E-09
  1 1005 8.13533383E-09
  1 1006 8.09556412E-09
  1 1007 8.17353101E-09
  1 1008 8.18744730E-09
  1 1009 8.02562039E-09
  1 1010 8.18942447E-09
  1 1011 8.28763324E-09
  1 1012 8.22101184E-09
  1 1013 8.25369052E-09
  1 1014 8.29993640E-09
  1 1015 8.21083111E-09
  1 1016 8.22683233E-09
  1 1017 8.30327467E-09
  1 1018 8.21872337E-09
  1 1019 8.20342250E-09
  1 1020 8.22603036E-09
  1 1021 8.21398489E-09
  1 1022 8.11955888E-09
  1 1023 8.09089516E-09
  1 1024 8.36154267E-09
  1 1025 7.92619479E-09
  1 1026 7.94318697E-09
  1 1027 7.76266830E-09
  1 1028 8.39064110E-09
  1 1029 9.27389918E-09
  1 1030 8.28762352E-09
  1 1031 9.44301342E-09
  1 1032 9.43929057E-09
  1 1033 9.44048715E-09
  1 1034 9.44146307E-09
  1 1035 9.44208689E-09
  1 1036 9.44328452E-09
  1 1037 9.44015507E-09
  1 1038 9.44318138E-09
  1 1039 9.27080547E-09
  1 1040 9.27265147E-09
  1 1041 8.77780836E-09
  1 1042 9.44316525E-09
  1 1043 9.30528639E-09
  1 1044 9.27654947E-09
  1 1045 9.44418003E-09
  1 1046 8.77858740E-09
  1 1047 9.44139889E-09
  1 1048 9.10363194E-09
  1 1049 9.28517728E-09
  1 1050 9.28588832E-09
  1 1051 9.28398313E-09
  1 1052 9.28757911E-09
  1 1053 9.28699376E-09
  1 1054 9.28560651E-09
  1 1055 9.28818582E-09
  1 1056 9.28149842E-09
  1 1057 9.28207789E-09
  1 1058 9.27943003E-09
  1 1059 9.28447770E-09
  1 1060 9.28490748E-09
  1 1061 9.28529676E-09
  1 1062 9.28389019E-09
  1 1063 9.28294108E-09
  1 1064 9.28377235E-09
  1 1065 9.28227800E-09
  1 1066 9.28323646E-09
  1 1067 9.09784435E-09
  1 1068 9.28426872E-09
  1 1069 9.28722104E-09
  1 1070 8.77966121E-09
  1 1071 8.77184210E-09
  1 1072 8.76883224E-09
  1 1073 8.76413658E-09
  1 1074 8.77267693E-09
  1 1075 8.77384704E-09
  1 1076 8.76983161E-09
  1 1077 8.77202858E-09
  1 1078 8.77734422E-09
  1 1079 8.76620184E-09
  1 1080 8.31314464E-09
  1 1081 8.76798495E-09
  1 1082 8.76901962E-09
  1 1083 8.77012982E-09
  1 1084 8.76333223E-09
  1 1085 8.76077415E-09
  1 1086 8.76776732E-09
  1 1087 8.76006373E-09
  1 1088 8.76274518E-09
  1 1089 8.77429466E-09
  1 1090 8.77293049E-09
  1 1091 8.77628712E-09
  1 1092 8.77989850E-09
  1 1093 8.78011388E-09
  1 1094 8.78345098E-09
  1 1095 8.78390170E-09
  1 1096 8.78161609E-09
  1 1097 8.78141556E-09
  1 1098 8.77228522E-09
  1 1099 8.78323261E-09
  1 1100 8.78790905E-09
  1 1101 8.78520085E-09
  1 1102 8.78241380E-09
  1 1103 8.76175056E-09
  1 1104 8.78625485E-09
  1 1105 8.78482832E-09
  1 1106 8.77326184E-09
  1 1107 8.78516088E-09
  1 1108 8.78005688E-09
  1 1109 8.78210676E-09
  1 1110 8.77910607E-09
  1 1111 8.77496108E-09
  1 1112 8.05203856E-09
  1 1113 9.28543348E-09
  1 1114 8.73865728E-09
  1 1115 9.28423121E-09
  1 1116 9.28954863E-09
  1 1117 9.28463673E-09
  1 1118 9.26326966E-09
  1 1119 9.28669654E-09
  1 1120 9.28324558E-09
  1 1121 9.28729553E-09
  1 1122 9.28420164E-09
  1 1123 9.28603407E-09
  1 1124 9.28871707E-09
  1 1125 9.28112027E-09
  1 1126 9.28500706E-09
  1 1127 9.28236321E-09
  1 1128 9.28219386E-09
  1 1129 9.28582811E-09
  1 1130 9.28380670E-09
  1 1131 9.28591929E-09
  1 1132 9.28828157E-09
  1 1133 9.10335401E-09
  1 1134 9.28448876E-09
  1 1135 8.79718072E-09
  1 1136 9.09989119E-09
  1 1137 8.31446473E-09
  1 1138 8.79975747E-09
  1 1139 9.03715670E-09
  1 1140 9.11179276E-09
  1 1141 8.77230041E-09
  1 1142 8.77669943E-09
  1 1143 8.63023138E-09
  1 1144 8.77944716E-09
  1 1145 8.41011096E-09
  1 1146 8.47011152E-09
  1 1147 8.48287901E-09
  1 1148 8.03331388E-09
  1 1149 8.47778904E-09
  1 1150 8.23172780E-09
  1 1151 9.23400776E-09
  1 1152 8.56300774E-09
  1 1153 9.28600539E-09
  1 1154 8.53594098E-09
  1 1155 8.54626614E-09
  1 1156 8.57499354E-09
  1 1157 8.48187019E-09
  1 1158 8.12781632E-09
  1 1159 8.12642109E-09
  1 1160 8.70213961E-09
  1 1161 8.54978673E-09
  1 1162 8.56257723E-09
  1 1163 8.53119696E-09
  1 1164 8.56638831E-09
  1 1165 8.52972855E-09
  1 1166 8.52485419E-09
  1 1167 8.50206124E-09
  1 1168 8.54180123E-09
  1 1169 8.49591326E-09
  1 1170 8.54036929E-09
  1 1171 8.52389471E-09
  1 1172 8.48902574E-09
  1 1173 8.06886950E-09
  1 1174 8.56101984E-09
  1 1175 8.10642683E-09
  1 1176 8.10069855E-09
  1 1177 8.17074602E-09
  1 1178 8.14774929E-09
  1 1179 8.12028396E-09
  1 1180 8.17602165E-09
  1 1181 8.16399432E-09
  1 1182 8.04565452E-09
  1 1183 8.08994901E-09
  1 1184 8.11695343E-09
  1 1185 8.06510620E-09
  1 1186 7.99691599E-09
  1 1187 8.08741377E-09
  1 1188 8.05877016E-09
  1 1189 7.83418550E-09
  1 1190 8.00996072E-09
  1 1191 8.01150335E-09
  1 1192 7.87425583E-09
  1 1193 7.83334180E-09
  1 1194 8.03825943E-09
  1 1195 8.25136348E-09
  1 1196 7.93344490E-09
  1 1197 7.79964559E-09
  1 1198 9.28553624E-09
  1 1199 9.44222246E-09
  1 1200 8.53448188E-09
  1 1201 8.03443810E-09
  1 1202 8.05727999E-09
  1 1203 8.10404867E-09
  1 1204 8.11561766E-09
  1 1205 8.13749660E-09
  1 1206 8.08398002E-09
  1 1207 8.00998664E-09
  1 1208 8.13190485E-09
  1 1209 8.11583781E-09
  1 1210 8.00918987E-09
  1 1211 8.17945764E-09
  1 1212 8.18899506E-09
  1 1213 8.20221256E-09
  1 1214 8.15314964E-09
  1 1215 8.09910787E-09
  1 1216 8.14434342E-09
  1 1217 8.14096860E-09
  1 1218 8.10004671E-09
  1 1219 8.25386031E-09
  1 1220 8.28844447E-09
  1 1221 8.36317235E-09
  1 1222 8.33710605E-09
  1 1223 8.36804209E-09
  1 1224 8.30611551E-09
  1 1225 8.14559395E-09
  1 1226 8.34857923E-09
  1 1227 8.21066026E-09
  1 1228 8.15591474E-09
  1 1229 8.17819330E-09
  1 1230 8.18126247E-09
  1 1231 8.20044001E-09
  1 1232 8.25341794E-09
  1 1233 8.23657763E-09
  1 1234 8.20466490E-09
  1 1235 8.18779169E-09
  1 1236 8.21118844E-09
  1 1237 8.38818565E-09
  1 1238 8.14656573E-09
  1 1239 8.23140713E-09
  1 1240 8.25496157E-09
  1 1241 8.00019012E-09
  1 1242 7.99734871E-09
  1 1243 8.05523812E-09
  1 1244 7.96124050E-09
  1 1245 8.02923203E-09
  1 1246 8.04194218E-09
  1 1247 7.90626645E-09
  1 1248 8.09261158E-09
  1 1249 8.20115467E-09
  1 1250 8.05214818E-09
  1 1251 8.09572130E-09
  1 1252 8.12353291E-09
  1 1253 8.16407799E-09
  1 1254 8.04341311E-09
  1 1255 8.13812191E-09
  1 1256 8.13791836E-09
  1 1257 8.08288668E-09
  1 1258 8.24635953E-09
  1 1259 8.11651661E-09
  1 1260 7.96030308E-09
  1 1261 8.05121383E-09
  1 1262 8.08606133E-09
  1 1263 8.23654465E-09
  1 1264 8.17315753E-09
  1 1265 8.21819397E-09
  1 1266 8.27923624E-09
  1 1267 8.23048021E-09
  1 1268 8.20731976E-09
  1 1269 8.08926078E-09
  1 1270 8.05824594E-09
  1 1271 8.10887944E-09
  1 1272 8.09043323E-09
  1 1273 8.13073044E-09
  1 1274 8.17232965E-09
  1 1275 8.22306570E-09
  1 1276 8.09046466E-09
  1 1277 8.05949770E-09
  1 1278 8.27801124E-09
  1 1279 8.16320519E-09
  1 1280 8.03336625E-09
  1 1281 7.95182362E-09
  1 1282 8.18861518E-09
  1 1283 8.19118200E-09
  1 1284 7.98092262E-09
  1 1285 8.53800335E-09
  1 1286 8.52348548E-09
  1 1287 8.52489683E-09