# File generated by Flopy version 3.9.1 on 02/10/2026 at 00:15:01.
BEGIN options
  PRINT_OPTION  summary
  COMPLEXITY  complex
END options

BEGIN nonlinear
  OUTER_DVCLOSE       0.00100000
  OUTER_MAXIMUM  300
END nonlinear

BEGIN linear
  INNER_MAXIMUM  1200
  INNER_DVCLOSE  1.00000000E-06
  LINEAR_ACCELERATION  bicgstab
  RELAXATION_FACTOR       0.92000000
END linear

