# File generated by Flopy version 3.9.1 on 02/10/2026 at 00:15:06.
BEGIN options
  BUDGET  FILEOUT  triangle_caseD.cbc
  HEAD  FILEOUT  triangle_caseD.hds
END options

BEGIN period  1
  SAVE  HEAD  LAST
  SAVE  BUDGET  LAST
  PRINT  BUDGET  LAST
END period  1

