# File generated by Flopy version 3.9.1 on 02/10/2026 at 00:15:01.
BEGIN options
  SAVE_FLOWS
END options

BEGIN packages
  DISV6  triangle_caseD.disv  disv
  IC6  triangle_caseD.ic  ic
  CHD6  triangle_caseD.chd  chd
  NPF6  triangle_caseD.npf  npf
  WEL6  triangle_caseD.wel  well_package
  RCH6  triangle_caseD.rch  rch
  EVT6  triangle_caseD.evt  evt
  OC6  triangle_caseD.oc  oc
END packages

