# File generated by Flopy version 3.9.1 on 02/10/2026 at 00:15:04.
BEGIN options
END options

BEGIN griddata
  strt  LAYERED
    INTERNAL  FACTOR  1.0
           1.73897380       1.84577288       1.76725297       1.75255356       1.76721339       1.76699133       1.75653152       1.18436254       1.78262009       1.76695346       1.76718706       1.76716580       1.76742927       1.76742607       1.76712066       1.76754592       1.76739338       1.76696278       1.84143990       1.84007035
           1.85494405       1.85529670       1.76783588       1.85521319       1.84878932       1.74018294       1.85521561       1.76765339       1.85516425       1.85534881       1.85505826       1.85520575       1.76756418       1.85535196       1.85507347       1.78303182       1.76736376       1.18775043       0.84186007       1.95868645
           1.76661990       1.76655494       1.76680258       1.76671979       1.76733213       1.76723827       1.76652516       1.76718187       1.74197341       1.76687728       1.77507811       1.70644779       1.76635952       1.76634307       1.76656713       1.76625053       1.76615812       1.76633893       1.78105655       1.70766457
           1.76737941       1.78123037       1.78067125       1.78093971       1.78161183       1.78099156       1.78252866       1.78086138       1.78138739       1.78157293       1.78189528       1.78224892       1.78256072       1.78308813       1.78249641       1.78233353       1.78139280       1.78186791       1.76736811       1.78211407
           1.76700119       1.74005359       1.85547042       0.74552816       1.83798827       1.84169146       1.84312751       1.83887235       1.84325347       1.84321790       1.85059152       1.84231707       1.85095585       1.84328712       1.84325930       1.85084577       1.85100648       1.84356936       1.85090010       1.84079700
           2.05967550       1.83882819       1.85215233       1.85097563       1.86565744       1.85386687       2.20817361       1.85256508       1.79233760       1.85513907       1.87681822       1.87696097       1.87102468       1.84628164       1.89546613       1.87698909       1.89588194       1.89618026       1.87836916       1.87695564
           1.79562458       1.85146836       0.98611117       1.87636798       1.85556137       1.85524761       1.89554390       1.89560115       1.89568587       1.85540415       1.87714887       1.89584564       1.85537599       1.85536243       1.85547736       1.85554293       1.85533935       1.85538348       1.85542677       1.85548747
           1.85539669       1.85546645       1.87708071       1.85303843       1.89613806       1.89574580       1.89617566       1.89610931       1.89631325       1.89615784       1.89598319       1.89617059       1.89569486       1.89562649       1.89597283       1.89589036       1.89582772       1.89585772       1.85540822       1.89609782
           1.89611865       1.89601653       1.95837816       1.89607677       1.89610245       1.85548178       1.89628140       1.85099462       1.84984397       1.89636195       1.70500910       1.73770381       1.78101612       1.78287201       1.78285151       1.78263768       1.78265793       1.78271207       1.58906735       1.27123709
           1.78218146       1.63259499       1.78283943       1.70493185       1.78249749       1.70690599       1.78244179       1.70462667       1.78287317       1.78342426       1.78286634       1.78334746       1.78347833       1.78305686       1.78326636       1.78293165       1.78286289       1.78307483       1.78300447       1.70367511
           1.70245241       1.70387461       1.70238391       1.70152981       1.78333677       1.78293921       1.78330068       1.78292573       1.78294900       1.70126946       1.70016073       1.69740713       1.69688873       1.69858080       1.69894684       1.69980764       1.69792206       1.70049124       1.56625760       1.69716402
           1.69902792       1.59429588       1.69848723       1.69665686       1.69805466       1.69768417       1.69703376       1.69726331       1.70090564       1.69977904       1.70192476       1.70026959       1.70263124       1.70278586       1.70373658       1.70192762       1.70221809       1.70255683       1.69914836       1.70315432
           1.70338295       1.70315288       1.70168565       1.70408802       1.70373627       1.70226668       1.70349413       1.70141931       1.70304851       1.70214454       1.70084301       1.57030820       1.95801590       1.30339304       2.22785641       2.27967179       2.23151341       2.25931248       2.24018677       2.23632413
           2.27009413       2.25846430       2.27401524       2.32514321       2.24898802       1.51197397       2.27301763       2.26771256       2.33957625       2.28896154       2.17545904       2.28876116       2.15643047       2.16002229       2.12792120       1.78321526       2.15154607       2.17693513       2.16862315       2.14759403
           2.16427972       2.21220128       2.12157396       2.13417750       2.16036633       2.11983155       2.09363579       2.11070226       2.12590854       2.20299341       2.14421698       2.19590020       2.15864744       2.31983387       1.50548386       1.50952903       1.50145715       1.50768091       1.50721734       1.50313848
           1.50927324       1.50343885       1.50100635       1.50478730       1.51941969       1.50195570       1.95989892       1.95908877       1.95947248       1.50383519       1.50826839       1.95900180       2.00552550       1.69590570       1.97428966       1.95717857       1.95455735       1.95880142       2.30395884       2.29759058
           2.32654097       1.95454927       1.95661651       1.95635705       1.95616932       1.95317868       1.95441690       1.95373546       1.95686406       1.95241875       1.95816041       1.95290295       1.95482716       1.95325229       2.35412225       1.50559799       2.16157982       2.20501323       2.09508699       1.95187774
           1.89625210       1.79429807       1.88072076       0.74842952       1.88894695       1.88891898       1.89139320       1.88889821       1.88427059       0.99019891       1.88899170       1.88892379       1.88893792       1.88895133       1.88901475       1.88898157       1.88893833       1.88898171       1.89079420       1.88892802
           1.87832722       1.87859460       1.87848590       1.87849841       1.87852365       1.87854171       1.87848550       1.87855711       1.88892286       1.88891414       1.88890444       1.88897547       1.88276821       1.88890392       1.87791138       1.88895173       1.87913818       1.84785784       1.87861519       1.87773512
           0.75144842       1.89200844       1.88698556       1.88810032       1.89079186       1.89078454       1.88051370       1.89074982       1.88898849       0.98162771       1.89076674       1.89075823       1.89083165       1.89125875       1.89077901       1.89077366       1.89082051       1.89138139       1.89076449       1.89082157
           1.89256212       1.89077562       1.88873246       1.88854614       1.88891952       1.88889316       1.89085537       1.88897281       1.88719011       1.88896762       1.89077237       1.89077929       1.89081288       1.89075322       1.89072807       1.88898681       1.89079405       1.89075070       1.89072647       1.89075928
           1.89076468       1.88885874       1.88891030       1.89081873       1.88394265       1.11746484       1.87277443       0.37800035       1.87054408       1.42075193       1.85323524       1.85776218       1.86889539       1.85854026       1.87627964       1.87553067       1.87480785       1.87480675       1.87468548       1.85809915
           1.87377981       1.87889466       1.87145281       1.87643862       1.85428964       1.85401603       1.85443042       1.85436884       1.85438692       1.85439639       1.85435895       1.85443457       1.85445855       1.85444907       1.85440396       1.85446844       1.85446991       1.85442340       1.85446198       1.85441291
           1.85441501       1.85974028       1.85439390       1.85406614       1.85445255       1.88893570       1.87863919       1.87853137       1.87792384       1.87856874       1.87860901       1.87866255       1.87852374       1.87867773       1.87871235       1.87865488       1.87865279       1.87862487       1.87870278       1.87874116
           1.87876908       1.87869361       1.87866463       1.87862600       1.87867816       1.87857661       1.87878652       1.87869166       1.87878021       1.87876811       1.87759246       1.87880601       1.87881455       1.87881580       1.87885235       1.87883792       1.87886138       1.87884897       1.87884694       1.87884032
           1.87879165       1.87732973       1.87882323       1.87725353       1.87882491       1.87878052       1.87724920       1.88862000       1.87887030       0.43733492       0.43784118       0.76168968       2.06699355       1.89328882       2.10763405       1.93477124       1.93550456       2.10911813       1.89875527       2.06684523
           2.06658010       2.06655848       2.06734814       1.95949354       2.06665739       2.06733872       2.06686729       2.06726084       2.06758870       1.95910623       2.06863307       2.06884864       1.88348986       1.92949126       1.89025362       2.06755447       2.06849337       1.89091305       2.06765325       2.06711644
           2.06714884       2.06812627       2.06825960       2.06759354       2.06882663       2.06895797       2.06734475       2.06828207       2.06806669       2.06740052       1.11842514       2.06707538       1.95685066       1.95603327       1.95692852       1.95619230       1.95668096       1.95698424       1.95825997       1.95779817
           1.95628469       1.95563259       1.95630935       1.95535867       1.95666563       1.95583524       1.95641538       1.95653367       1.95576526       1.95211794       1.95726779       1.95582979       1.95724597       1.95862309       1.95826665       1.95957371       1.95971723       1.95843299       1.95893463       1.95816119
           1.95789909       1.78328386       1.95736965       1.95898408       1.95592429       1.95729592       1.90104103       1.95599427       1.76922449       1.95795214       1.99090579       1.95819928       1.95672271       1.96972225       2.06712916       1.89643002       1.89510684       1.89081233       1.89189231       1.88702535
           1.89186134       1.89183284       1.89352365       1.89477479       1.89196708       1.89185683       2.06893679       2.06849123       1.89196085       1.89189882       1.89199219       1.89202808       1.89193193       1.89199150       2.06145210       1.89199774       1.89080709       1.89081565       2.08306370       1.89063016
           1.89187629       1.88893898       1.88927790       2.06846402       2.06869142       2.06833638       2.06845121       2.06900780       2.06910896       2.06881339       2.06889405       2.06912042       2.06890712       2.06920147       1.89193781       1.89202473       1.89078067       2.06844643       2.10936304       2.10883938
           2.06870411       2.06809404       2.06830453       2.10943090       2.10735650       2.06886210       2.04909084       2.13661144       2.10940238       2.25739832       2.10915175       2.10837186       2.10847025       2.10908598       2.10876248       2.10955885       2.06868783       2.10892657       2.06880795       2.06846263
           2.06983993       2.06909971       2.06920294       2.06871862       2.06930031       2.06945897       2.06995611       2.06951685       2.06964864       2.07032842       2.12169818       2.07007355       2.07035832       2.06949219       1.89196336       2.06905561       2.06931598       2.06868610       2.06814199       2.05873860
           2.08915817       1.89020893       1.89073115       2.11189567       2.18064693       1.84728563       0.51497206       1.97181785       0.46627740       1.79792956       0.81292468       1.18269758       0.48775770       0.86139558       1.25632043       1.80110627       0.45876879       1.75239206       0.48412000       1.79255815
           0.48390793       0.45662536       0.32799046       0.47610358       0.52736391       0.45948747       0.50431440       1.18539503       0.49978634       0.96808416       2.03280565       0.55270909       1.73586535       1.70469941       0.52531836       0.54178072       0.41039739       0.51938249       0.52129353       0.32833736
           0.41237680       0.52187353       0.84014107       0.52351672       0.81304170       0.50237150       1.18655429       0.51748688       1.84632165       0.76088119       0.79449949       0.45454048       0.45078861       0.79420148       0.55706092       0.48392284       1.84336692       2.27805425       0.75090498       0.45669425
           0.46798683       0.46581401       0.24095933       0.47826043       2.28242242       0.22084699       0.45631964       0.37508475       0.49385773       0.67603048       0.74539598       0.37218438       0.25343407       0.47614187       0.29723999       0.49144954       0.20689525       0.23876215       0.21749772       0.22485744
           0.23409871       0.22934467       0.22881310       0.21256900       0.34110535       0.20568285       0.29381952       0.50567747       0.49118762       0.22057860       1.30538519       1.29862873       1.53172839       1.73397586       1.62032299       1.61895087       1.59320235       1.57801724       1.62590735       1.62087786
           1.61939468       1.61952426       1.62099499       1.62332422       1.62634274       1.62334158       1.62481380       1.62219103       1.62468154       1.62108340       1.62760703       1.62643768       1.62644599       1.62279990       1.62527348       1.62913919       1.62659832       1.62746419       1.62586575       1.62427132
           1.62738957       1.62721054       1.62566394       1.62629786       1.62775428       1.62770353       1.62648118       1.62833118       1.62821649       1.62480495       1.48968625       1.66917938       0.47720743       0.66816049       1.75080783       1.75079474       1.75049637       1.75066012       1.34864228       1.75035717
           1.75206638       1.75224830       1.75198870       1.82482292       1.75110323       1.75173341       1.75239449       1.75109622       1.75059160       1.75161831       1.75087894       0.68647580       1.63112006       1.62608773       1.63141543       1.62460592       1.62144752       1.63126489       1.63112208       1.63143617
           1.75010895       1.75033949       1.74979683       1.75292349       1.63144296       1.63151799       1.63193625       1.63160720       1.63085568       1.75019582       1.64902182       1.63110347       1.62597524       0.17996188       1.16924069       1.71840898       1.53403921       1.07426094       0.20506474       0.22093826
           0.19629246       0.21848417       0.17267054       0.20102816       0.20700052       0.18854825       0.48502800       0.19535247       0.18324835       0.18654791       0.18283464       0.14910886       0.19865844       0.24592068       0.19346986       0.19037848       0.88110514       0.76063800       0.90801499       0.92368321
           0.88756611       0.90959630       0.19557375       0.89557696       0.81164145       0.85299584       0.82832008       0.83956916       0.88507325       0.87652952       0.86585742       0.86154934       0.87067477       0.85857778       0.87929815       0.17028552       0.89315694       0.76859176       0.76740643       0.81381805
           0.81754176       0.82212385       0.82192498       0.80772731       0.80865277       0.80243926       0.73481655       0.58356469       0.74190769       0.76529802       0.75520271       0.74924464       0.78050980       0.78009327       0.74911567       0.77068449       0.81805275       0.79476311       0.82994438       0.83965407
           0.85046225       0.84287346       0.84672250       0.85861961       0.86295074       0.83622648       0.82057426       0.81866896       0.82296063       0.81473822       0.83129487       0.82817807       0.84390261       0.84431362       0.82751236       0.81099844       0.84146094       0.81859874       0.82341992       0.84984606
           0.91723077       0.70129823       1.08112727       1.08860711       1.09477086       1.10795868       1.09676360       1.07405999       1.10110235       1.08502255       1.03578832       0.96665047       1.06462057       1.07340605       1.06476256       1.04623194       1.06324477       1.05120383       1.07760940       0.90328621
           1.10268782       1.11564298       1.10468488       1.11907914       1.06973048       1.10769640       1.12791745       1.10250189       1.07620977       1.08906287       1.08389155       1.07912724       1.09017107       1.07983843       1.08428488       1.07407090       1.09578466       1.07274408       1.09519436       1.11562179
           0.95152902       1.05629330       0.91871086       0.92795116       0.92776962       0.94373262       0.94965315       0.93657251       0.96465472       0.91030966       0.89818133       0.90610840       0.91454765       0.88938723       0.93326273       0.91312417       0.92868455       0.93744405       0.92954702       0.92267788
           0.96054291       0.93333828       0.96793363       1.04405953       1.06027779       1.06811817       1.05723397       1.04468357       0.98177665       1.03601991       0.92939227       0.93322458       0.94790249       0.90698320       0.96792097       0.96958441       0.95073505       0.95251176       0.94571261       0.97949276
           1.04559012       0.96902434       1.05887660       0.90677054       1.11720190       1.03079258       1.13015726       0.89291420       1.62645298       0.45981087       1.95160531       1.95344013       1.95322638       1.95367970       1.95160725       1.95182438       1.95297753       1.95168371       1.62565081       1.62340947
           1.66803655       1.94986144       1.66190477       1.62668956       1.95103083       1.66795434       1.95307578       1.49908453       1.65539858       1.65569846       1.65499986       1.65612083       1.65601173       1.65555482       1.65643841       1.65432264       1.65446790       1.65372596       1.65533452       1.65535620
           1.65546870       1.65512024       1.65480948       1.65500686       1.65460496       1.65484511       1.06736191       1.65521512       1.65607096       1.66774706       1.66889431       1.66935835       1.66999761       1.66880354       1.66863228       1.66914039       1.66891308       1.66803735       1.66968996       1.63206978
           1.66950048       1.66930063       1.66912470       1.67013467       1.67049069       1.66948045       1.67060968       1.67018001       1.66851041       1.66880932       1.66816162       1.66765479       1.66757963       1.66714882       1.66702184       1.64649257       1.66746285       1.66877881       1.64568029       1.64510797
           1.64576777       1.64601928       1.67033104       1.64537350       1.64522038       1.64771154       1.64533892       1.64665387       1.66734556       1.66778465       1.66846692       1.04338621       1.65539481       1.64670569       1.65499316       1.65665037       1.65508152       1.64705081       1.65572227       1.65457741
           1.65599219       1.65504447       1.65557818       1.65652750       1.65381919       1.65515972       1.65420681       1.65422825       1.65549681       1.65482174       1.65547031       1.65628267       1.56903960       1.65497558       1.62883465       1.47520579       2.34932804       1.44764604       1.93264461       1.16117320
           1.57546262       1.63317502       1.69593143       1.41469349       2.35653842       2.41436947       2.41310564       2.23528100       2.39114521       2.19215832       3.08474831       0.86045346       1.65551596       0.66082072       0.98709969       0.90160999       1.38649271       2.07726052       2.11112939       2.15545673
           1.15241774       0.94421786       0.86339345       0.81273350       0.91719540       0.94860091       1.27425127       1.00140612       1.32874725       1.04605513       1.11930699       1.32948408       2.07913979       0.98628009       2.10652683       2.12600426       2.14479106       2.13908168       2.11958028       2.12197252
           2.11459400       2.10827453       2.09378403       2.11180643       2.13608009       2.07521839       2.11820132       2.15314823       2.15836927       2.15271705       2.19906380       2.11503551       2.18731433       2.08482860       2.13950676       2.09555944       2.16165606       1.65547490       1.95264042       0.77782083
           1.10588969       1.03794995       1.01539976       0.95898166       0.97965525       1.01404506       1.10446810       1.02954355       1.05376837       1.11040511       1.06077662       1.04554546       1.05661210       1.08512801       1.04536368       1.11083632       1.04796508       1.06844140       0.82617253       0.71468817
           0.61390517       0.62287593       0.70619270       0.69535043       0.88177007       0.68748966       1.00235070       0.98470354       0.96580364       1.03018257       0.92113994       0.89380189       1.01172130       0.97685264       0.89358144       1.04200222       0.66391815       0.94120246       0.75870931       0.99944880
           1.09878552       1.11116342       1.09954714       1.12255743       1.10674482       1.10189878       1.12512967       1.08465475       1.05241927       1.07945648       1.07495065       1.06825256       1.06168391       1.08846707       1.07086514       1.06688004       1.08008777       1.04651234       1.08336785       1.11067811
           1.09741035       1.08122933       1.04626884       1.02514015       1.05967848       1.01140011       1.03365567       1.07873557       1.09025052       1.09827128       1.08462958       1.09019104       1.06707317       1.04254229       1.02461781       1.08855004       1.09710878       0.97769721       1.06978484       1.10542401
           1.12899842       1.06291952       1.05992234       1.11995615       0.46014020       0.64311274       0.67409007       0.68413000       0.70168217       0.63347446       0.52008191       0.54240197       0.24129232       0.67178224       0.26033600       0.26338339       0.38007511       0.30076395       0.59222006       0.41263196
           0.42495430       0.34437364       0.68517962       0.46145886       0.88597520       0.69110793       1.75719723       2.12965024       2.15221651       0.92577489       1.08598480       2.14909462       0.73652634       0.71617199       0.73403514       0.70731442       1.02373173       0.74902016       0.79931029       0.76904672
           0.54817300       0.66037128       0.70972107       0.81948726       0.87881123       2.12580780       0.55061495       0.49463733       0.38506255       0.48739286       0.45004564       0.46524705       0.36988815       0.45647583       0.55507363       0.51767303       0.48058324       0.60298175       0.47410733       0.45159565
           0.48348953       0.54703140       0.47986121       0.51135491       0.48550644       0.60016518       0.45819639       0.42099377       0.45966536       0.39195207       0.40200568       0.45560113       0.32436674       0.47151877       0.51043215       0.42223252       0.53322431       0.52329839       0.53169315       0.52678007
           0.48360678       0.52701295       0.47483087       0.68552587       0.59606825       0.41854136       0.44603888       0.93714115       0.91203794       0.36258891       0.25265608       0.95717070       2.18695509       1.62603778       1.95120778       2.13827618       1.85447902       1.86566425       1.84648827       1.84390436
           1.84319726       3.11582939       1.84325603       1.84254875       1.84151300       1.85241419       1.85244994       1.84687921       1.85243064       1.85242277       1.85241502       1.84413582       1.85242194       1.84389137       1.85216829       1.85247295       1.35034638       1.84625743       1.80575223       1.86875478
           0.44230986       1.80632564       1.84852189       1.80604141       1.85245648       1.85244481       1.85245396       1.85248521       1.85246960       1.85246177       1.85136579       1.85248173       1.85243776       1.84520431       1.80687043       1.84928548       1.80828893       1.84582887       1.85250226       1.85250092
           1.85249598       1.85250460       1.84805579       1.85250855       1.85247603       1.84685478       1.85252024       1.85251364       1.85253996       1.85253906       1.85257491       1.85251722       1.80688914       1.85254970       1.85251786       1.80617354       1.85252855       1.85254049       1.80689392       1.80687310
           1.80688049       1.80686980       1.80688585       1.80694088       1.80686652       1.80689891       1.80689989       1.80689531       1.80639208       1.80651881       1.80689937       1.80690776       1.80693311       1.85261558       1.80691736       1.80641346       1.80692183       1.80625126       1.80587000       1.80694015
           1.79975591       1.85253745       1.33041197       1.80240483       1.80248105       1.80238976       1.80241007       1.80242918       1.79958900       1.80244343       1.80245001       1.80246050       1.80243300       1.80245536       1.80244938       1.80243886       1.80242177       1.80242249       1.80240010       1.80240511
           1.79959730       1.79910343       1.79898812       0.24211487       1.80153290       1.80148489       1.79951834       1.79906557       1.80238322       1.80186129       1.80239581       1.80237997       1.80242038       1.80247134       1.80237272       1.80237723       1.80239004       1.80240696       1.80239180       1.80143493
           1.79887532       1.80199337       1.80507730       1.80506762       1.80506215       1.80505638       1.80503823       1.80505083       1.80504457       1.80504442       1.80507049       1.80509667       1.80509755       1.80510134       1.80508837       1.80508128       1.80506698       1.80511455       1.80506260       1.80508792
           1.80506325       1.80506346       1.80246237       1.80248311       1.80426446       1.80247532       0.31382467       1.80496123       1.80245598       1.80266575       1.80501997       1.80503635       1.80499220       1.80505172       1.80500931       1.80500315       1.80502706       1.80498806       1.80499771       1.80500461
           1.80503193       1.80247392       1.80245936       1.80509571       1.81001764       1.80103261       1.80080927       1.80510411       1.84983913       1.85110975       1.85109798       1.85115721       1.85453583       1.84996776       1.80781574       1.85116854       1.85450542       1.85446354       1.85448434       1.86960685
           1.86849382       1.85172399       1.86996614       1.85455123       1.85452768       3.09469108       1.85117876       1.85115894       1.84840380       1.84929560       1.84581634       1.85971512       1.85116430       1.85255465       1.85116009       1.85115593       1.85118996       1.85117629       1.85116499       1.85116469
           1.85117543       1.85117687       1.85115831       1.85118369       1.85116999       1.84745353       1.80167796       1.85116686       1.85453780       1.85451720       1.85874033       1.85455000       1.85973512       1.85449659       1.85453706       1.85456138       1.85971566       1.85970937       1.85974694       1.87643626
           1.85971098       1.85972431       1.85975181       1.85977296       1.85970761       1.88606453       1.85565299       1.85974414       1.85968521       1.85970719       1.85964749       1.85124507       1.85458169       1.85964829       1.85971305       1.85967607       1.85972257       1.85972897       1.85975040       1.85974427
           1.85972621       1.85972237       1.85971058       1.85971737       1.85970923       1.85973615       1.85970636       1.85966536       1.85457086       1.85975621       1.84665843       1.87300613       1.85252435       1.80692377       1.80692512       1.80692404       1.80692415       1.80693577       1.80692458       1.80694133
           1.80694999       1.80691882       1.81120032       1.80885582       1.81142697       1.80695103       1.81113799       1.80693464       1.80510868       1.81144439       1.81143022       1.81142673       1.81144193       1.81142982       1.81144651       1.81144842       1.81142079       1.81146523       1.81145425       1.81144534
           1.81147658       1.85969364       1.81146635       1.81145385       1.81148883       1.81148690       1.81146887       1.81147809       1.81146971       1.81146868       1.80644107       1.81147860       1.81147659       1.81146619       1.81146496       1.81146985       1.81146560       1.81145774       1.81146096       1.81147468
           1.82849458       1.82849583       1.82844944       1.82851244       1.82846708       1.82845167       1.82845390       1.82844081       1.81147463       1.81147999       1.81148408       1.82851468       1.87757498       1.82848173       1.82849732       1.82848360       1.82852902       1.82852968       1.82847471       1.82852027
           1.82852099       1.82851556       1.82853977       1.82854019       1.82852322       1.82851237       1.82854327       1.82853771       1.82851762       1.82853920       1.82852561       1.82853214       1.80878974       1.81149429       1.82850293       1.85252387       1.80693639       1.82853304       1.85055229       1.79922147