# File generated by Flopy version 3.9.1 on 02/12/2026 at 09:25:12.
BEGIN options
  SAVE_FLOWS
END options

BEGIN packages
  disv6  triangle_caseD.disv  disv
  ic6  triangle_caseD.ic  ic
  chd6  triangle_caseD.chd  chd
  npf6  triangle_caseD.npf  npf
  wel6  triangle_caseD.wel  well_package
  rch6  triangle_caseD.rch  rch
  evt6  triangle_caseD.evt  evt
  oc6  triangle_caseD.oc  oc
END packages

