# File generated by Flopy version 3.9.1 on 02/12/2026 at 09:25:14.
BEGIN options
  SAVE_FLOWS
END options

BEGIN dimensions
  MAXBOUND  28967
  NSEG  1
END dimensions

BEGIN period  1
  1 1      98.00000000  5.30188887E-09       2.00000000
  1 2      68.00000000  5.30188887E-09       2.00000000
  1 3      75.00000000  5.29137691E-09       2.00000000
  1 4     118.00000000  5.30188887E-09       2.00000000
  1 5      75.00000000  5.29137691E-09       2.00000000
  1 6      75.00000000  5.29137691E-09       2.00000000
  1 7      79.00000000  2.71513985E-09       2.00000000
  1 8      11.00000000  4.46190816E-09       2.00000000
  1 9      79.00000000  2.70975659E-09       2.00000000
  1 10      75.00000000  5.29137691E-09       2.00000000
  1 11      75.00000000  5.29137691E-09       2.00000000
  1 12      75.00000000  5.29137691E-09       2.00000000
  1 13      75.00000000  2.70975659E-09       2.00000000
  1 14      75.00000000  2.70975659E-09       2.00000000
  1 15      75.00000000  5.29137691E-09       2.00000000
  1 16      75.00000000  2.70975659E-09       2.00000000
  1 17      75.00000000  2.70975659E-09       2.00000000
  1 18      75.00000000  5.29137691E-09       2.00000000
  1 19      74.00000000  5.30188887E-09       2.00000000
  1 20      78.00000000  5.30188887E-09       2.00000000
  1 21      68.00000000  5.30188887E-09       2.00000000
  1 22      69.00000000  5.30188887E-09       2.00000000
  1 23      75.00000000  2.70975659E-09       2.00000000
  1 24      69.00000000  5.30188887E-09       2.00000000
  1 25     106.00000000  5.30188887E-09       2.00000000
  1 26      66.00000000  5.30188887E-09       2.00000000
  1 27      70.00000000  2.71513985E-09       2.00000000
  1 28      75.00000000  2.70975659E-09       2.00000000
  1 29      70.00000000  5.30188887E-09       2.00000000
  1 30      70.00000000  2.71513985E-09       2.00000000
  1 31      70.00000000  5.30188887E-09       2.00000000
  1 32      70.00000000  5.30188887E-09       2.00000000
  1 33      75.00000000  2.70975659E-09       2.00000000
  1 34      69.00000000  2.71513985E-09       2.00000000
  1 35      70.00000000  5.30188887E-09       2.00000000
  1 36      79.00000000  2.70975659E-09       2.00000000
  1 37      75.00000000  2.70975659E-09       2.00000000
  1 38      12.00000000  4.46190816E-09       2.00000000
  1 39       8.00000000  6.99785070E-09       2.00000000
  1 40      60.00000000  2.63712545E-09       2.00000000
  1 41      74.00000000  2.70975659E-09       2.00000000
  1 42      74.00000000  5.29137691E-09       2.00000000
  1 43      74.00000000  5.29137691E-09       2.00000000
  1 44      74.00000000  5.29137691E-09       2.00000000
  1 45      75.00000000  2.70975659E-09       2.00000000
  1 46      75.00000000  2.70975659E-09       2.00000000
  1 47      74.00000000  5.29137691E-09       2.00000000
  1 48      75.00000000  2.70975659E-09       2.00000000
  1 49      70.00000000  5.50217438E-09       2.00000000
  1 50      75.00000000  5.29137691E-09       2.00000000
  1 51      79.00000000  2.70975659E-09       2.00000000
  1 52      58.00000000  5.50217438E-09       2.00000000
  1 53      74.00000000  5.29137691E-09       2.00000000
  1 54      74.00000000  5.29137691E-09       2.00000000
  1 55      74.00000000  2.70975659E-09       2.00000000
  1 56      74.00000000  2.70975659E-09       2.00000000
  1 57      74.00000000  5.29137691E-09       2.00000000
  1 58      74.00000000  2.70975659E-09       2.00000000
  1 59      77.00000000  2.70975659E-09       2.00000000
  1 60      49.00000000  5.50217438E-09       2.00000000
  1 61      75.00000000  2.70975659E-09       2.00000000
  1 62      78.00000000  2.70975659E-09       2.00000000
  1 63      77.00000000  5.29137691E-09       2.00000000
  1 64      77.00000000  2.70975659E-09       2.00000000
  1 65      78.00000000  2.70975659E-09       2.00000000
  1 66      77.00000000  5.29137691E-09       2.00000000
  1 67      79.00000000  2.70975659E-09       2.00000000
  1 68      77.00000000  5.29137691E-09       2.00000000
  1 69      77.00000000  5.29137691E-09       2.00000000
  1 70      78.00000000  2.70975659E-09       2.00000000
  1 71      78.00000000  2.70975659E-09       2.00000000
  1 72      79.00000000  5.29137691E-09       2.00000000
  1 73      79.00000000  5.29137691E-09       2.00000000
  1 74      79.00000000  2.70975659E-09       2.00000000
  1 75      79.00000000  2.70975659E-09       2.00000000
  1 76      79.00000000  5.29137691E-09       2.00000000
  1 77      77.00000000  2.70975659E-09       2.00000000
  1 78      78.00000000  5.29137691E-09       2.00000000
  1 79      75.00000000  2.70975659E-09       2.00000000
  1 80      78.00000000  5.29137691E-09       2.00000000
  1 81      75.00000000  5.29137691E-09       2.00000000
  1 82      71.00000000  2.81770767E-09       2.00000000
  1 83      69.00000000  2.71513985E-09       2.00000000
  1 85      98.00000000  5.29611015E-09       2.00000000
  1 86      97.00000000  5.29611015E-09       2.00000000
  1 87     110.00000000  5.29611015E-09       2.00000000
  1 88      92.00000000  5.29611015E-09       2.00000000
  1 89     111.00000000  5.29611015E-09       2.00000000
  1 90     111.00000000  2.71218053E-09       2.00000000
  1 91      83.00000000  5.30188887E-09       2.00000000
  1 92      92.00000000  2.71218053E-09       2.00000000
  1 93      83.00000000  2.71513985E-09       2.00000000
  1 94     112.00000000  2.71218053E-09       2.00000000
  1 95     111.00000000  5.29611015E-09       2.00000000
  1 96      83.00000000  5.30188887E-09       2.00000000
  1 97      83.00000000  2.71513985E-09       2.00000000
  1 98     112.00000000  2.71218053E-09       2.00000000
  1 99      83.00000000  5.30188887E-09       2.00000000
  1 100      81.00000000  2.71513985E-09       2.00000000
  1 102      93.00000000  5.29611015E-09       2.00000000
  1 103      79.00000000  5.30188887E-09       2.00000000
  1 104      83.00000000  5.30188887E-09       2.00000000
  1 105      77.00000000  5.30188887E-09       2.00000000
  1 106      94.00000000  5.30188887E-09       2.00000000
  1 108      79.00000000  2.71513985E-09       2.00000000
  1 109      26.00000000  4.26192157E-09       2.00000000
  1 110      88.00000000  5.30188887E-09       2.00000000
  1 111      74.00000000  5.30188887E-09       2.00000000
  1 112      75.00000000  5.30188887E-09       2.00000000
  1 113      62.00000000  2.71513985E-09       2.00000000
  1 114      65.00000000  2.71513985E-09       2.00000000
  1 115      69.00000000  5.16110729E-09       2.00000000
  1 116      75.00000000  5.30188887E-09       2.00000000
  1 117      74.00000000  5.16110729E-09       2.00000000
  1 118      70.00000000  5.16110729E-09       2.00000000
  1 119      79.00000000  5.30188887E-09       2.00000000
  1 120      75.00000000  2.71513985E-09       2.00000000
  1 121      25.00000000  4.26192157E-09       2.00000000
  1 122      83.00000000  2.71513985E-09       2.00000000
  1 123       1.00000000  4.86067922E-09       2.00000000
  1 124      76.00000000  2.71513985E-09       2.00000000
  1 125      69.00000000  2.71513985E-09       2.00000000
  1 126      68.00000000  5.30188887E-09       2.00000000
  1 127      69.00000000  5.16110729E-09       2.00000000
  1 128      69.00000000  5.16110729E-09       2.00000000
  1 129      69.00000000  2.64304447E-09       2.00000000
  1 130      68.00000000  2.71513985E-09       2.00000000
  1 131      76.00000000  2.71513985E-09       2.00000000
  1 132      69.00000000  2.64304447E-09       2.00000000
  1 133      69.00000000  5.30188887E-09       2.00000000
  1 134      69.00000000  5.30188887E-09       2.00000000
  1 135      69.00000000  2.71513985E-09       2.00000000
  1 136      69.00000000  2.71513985E-09       2.00000000
  1 137      69.00000000  5.30188887E-09       2.00000000
  1 138      69.00000000  5.30188887E-09       2.00000000
  1 139      68.00000000  2.71513985E-09       2.00000000
  1 140      68.00000000  2.71513985E-09       2.00000000
  1 141      69.00000000  5.30188887E-09       2.00000000
  1 142      69.00000000  2.71513985E-09       2.00000000
  1 143      75.00000000  2.71513985E-09       2.00000000
  1 144      80.00000000  5.30188887E-09       2.00000000
  1 145      69.00000000  2.64304447E-09       2.00000000
  1 146      69.00000000  5.16110729E-09       2.00000000
  1 147      69.00000000  5.16110729E-09       2.00000000
  1 148      69.00000000  5.16110729E-09       2.00000000
  1 149      70.00000000  2.64304447E-09       2.00000000
  1 150      69.00000000  2.64304447E-09       2.00000000
  1 151      69.00000000  5.16110729E-09       2.00000000
  1 152      69.00000000  2.64304447E-09       2.00000000
  1 153      69.00000000  5.16110729E-09       2.00000000
  1 154      69.00000000  5.16110729E-09       2.00000000
  1 155      69.00000000  2.64304447E-09       2.00000000
  1 156      69.00000000  2.64304447E-09       2.00000000
  1 157      69.00000000  5.16110729E-09       2.00000000
  1 158      69.00000000  5.16110729E-09       2.00000000
  1 159      69.00000000  2.71513985E-09       2.00000000
  1 160      69.00000000  2.64304447E-09       2.00000000
  1 161      69.00000000  5.16110729E-09       2.00000000
  1 162      69.00000000  2.64304447E-09       2.00000000
  1 163      60.00000000  2.63712545E-09       2.00000000
  1 164      69.00000000  5.16110729E-09       2.00000000
  1 165      69.00000000  5.16110729E-09       2.00000000
  1 166      69.00000000  2.71513985E-09       2.00000000
  1 167      69.00000000  2.64304447E-09       2.00000000
  1 168      83.00000000  2.71513985E-09       2.00000000
  1 169     112.00000000  4.83197038E-09       2.00000000
  1 170      70.00000000  2.64304447E-09       2.00000000
  1 171      66.00000000  5.50217438E-09       2.00000000
  1 172      68.00000000  5.50217438E-09       2.00000000
  1 173      77.00000000  5.29137691E-09       2.00000000
  1 174      79.00000000  2.70975659E-09       2.00000000
  1 175      79.00000000  2.70975659E-09       2.00000000
  1 176      79.00000000  5.29137691E-09       2.00000000
  1 177      79.00000000  5.29137691E-09       2.00000000
  1 178      80.00000000  5.29137691E-09       2.00000000
  1 179      50.00000000  5.50217438E-09       2.00000000
  1 180      46.00000000  5.37550538E-09       2.00000000
  1 181      79.00000000  5.29137691E-09       2.00000000
  1 182      60.00000000  5.50217438E-09       2.00000000
  1 183      80.00000000  2.70975659E-09       2.00000000
  1 184      58.00000000  2.70975659E-09       2.00000000
  1 185      78.00000000  5.29137691E-09       2.00000000
  1 186      59.00000000  2.70975659E-09       2.00000000
  1 187      79.00000000  5.29137691E-09       2.00000000
  1 188      63.00000000  5.50217438E-09       2.00000000
  1 189      79.00000000  5.29137691E-09       2.00000000
  1 190      80.00000000  2.70975659E-09       2.00000000
  1 191      79.00000000  5.29137691E-09       2.00000000
  1 192      80.00000000  2.70975659E-09       2.00000000
  1 193      80.00000000  2.70975659E-09       2.00000000
  1 194      80.00000000  5.29137691E-09       2.00000000
  1 195      80.00000000  2.70975659E-09       2.00000000
  1 196      81.00000000  5.29137691E-09       2.00000000
  1 197      80.00000000  5.29137691E-09       2.00000000
  1 198      80.00000000  5.29137691E-09       2.00000000
  1 199      85.00000000  2.70975659E-09       2.00000000
  1 200      58.00000000  2.70975659E-09       2.00000000
  1 201      58.00000000  5.29137691E-09       2.00000000
  1 202      58.00000000  2.70975659E-09       2.00000000
  1 203      58.00000000  2.70975659E-09       2.00000000
  1 204      58.00000000  5.29137691E-09       2.00000000
  1 205      80.00000000  2.70975659E-09       2.00000000
  1 206      82.00000000  2.70975659E-09       2.00000000
  1 207      80.00000000  2.70975659E-09       2.00000000
  1 208      79.00000000  5.29137691E-09       2.00000000
  1 209      79.00000000  2.70975659E-09       2.00000000
  1 210      59.00000000  2.70975659E-09       2.00000000
  1 211      59.00000000  5.29137691E-09       2.00000000
  1 212      60.00000000  2.70975659E-09       2.00000000
  1 213      60.00000000  5.29137691E-09       2.00000000
  1 214      59.00000000  2.70975659E-09       2.00000000
  1 215      59.00000000  2.70975659E-09       2.00000000
  1 216      59.00000000  5.29137691E-09       2.00000000
  1 217      60.00000000  2.70975659E-09       2.00000000
  1 218      59.00000000  5.29137691E-09       2.00000000
  1 219      48.00000000  2.75283946E-09       2.00000000
  1 220      60.00000000  2.70975659E-09       2.00000000
  1 221      59.00000000  5.29137691E-09       2.00000000
  1 222      49.00000000  2.81770767E-09       2.00000000
  1 223      59.00000000  5.29137691E-09       2.00000000
  1 224      60.00000000  2.70975659E-09       2.00000000
  1 225      60.00000000  2.70975659E-09       2.00000000
  1 226      59.00000000  5.29137691E-09       2.00000000
  1 227      60.00000000  2.70975659E-09       2.00000000
  1 228      60.00000000  5.29137691E-09       2.00000000
  1 229      59.00000000  5.29137691E-09       2.00000000
  1 230      59.00000000  2.70975659E-09       2.00000000
  1 231      58.00000000  5.29137691E-09       2.00000000
  1 232      59.00000000  2.70975659E-09       2.00000000
  1 233      58.00000000  5.29137691E-09       2.00000000
  1 234      58.00000000  5.29137691E-09       2.00000000
  1 235      58.00000000  2.70975659E-09       2.00000000
  1 236      58.00000000  5.29137691E-09       2.00000000
  1 237      59.00000000  2.70975659E-09       2.00000000
  1 238      58.00000000  5.29137691E-09       2.00000000
  1 239      57.00000000  5.29137691E-09       2.00000000
  1 240      58.00000000  5.29137691E-09       2.00000000
  1 241      58.00000000  2.70975659E-09       2.00000000
  1 242      58.00000000  5.29137691E-09       2.00000000
  1 243      58.00000000  5.29137691E-09       2.00000000
  1 244      58.00000000  2.70975659E-09       2.00000000
  1 245      58.00000000  2.70975659E-09       2.00000000
  1 246      58.00000000  5.29137691E-09       2.00000000
  1 247      58.00000000  2.70975659E-09       2.00000000
  1 248      59.00000000  5.29137691E-09       2.00000000
  1 249      58.00000000  2.70975659E-09       2.00000000
  1 250      58.00000000  2.70975659E-09       2.00000000
  1 251      59.00000000  2.70975659E-09       2.00000000
  1 252      53.00000000  5.22393778E-09       2.00000000
  1 253      60.00000000  2.63712545E-09       2.00000000
  1 254      -1.00000000  5.43125708E-09       2.00000000
  1 255      60.00000000  5.22393778E-09       2.00000000
  1 256      60.00000000  2.67522047E-09       2.00000000
  1 257      60.00000000  5.22393778E-09       2.00000000
  1 258      60.00000000  2.67522047E-09       2.00000000
  1 259      60.00000000  2.67522047E-09       2.00000000
  1 260      60.00000000  5.22393778E-09       2.00000000
  1 261      60.00000000  2.67522047E-09       2.00000000
  1 262      60.00000000  5.22393778E-09       2.00000000
  1 263      60.00000000  5.22393778E-09       2.00000000
  1 264      58.00000000  2.67522047E-09       2.00000000
  1 265      60.00000000  5.22393778E-09       2.00000000
  1 266      59.00000000  2.67522047E-09       2.00000000
  1 267      60.00000000  2.67522047E-09       2.00000000
  1 268      60.00000000  5.22393778E-09       2.00000000
  1 269      55.00000000  2.67522047E-09       2.00000000
  1 270      60.00000000  5.22393778E-09       2.00000000
  1 271      59.00000000  5.22393778E-09       2.00000000
  1 272      60.00000000  2.67522047E-09       2.00000000
  1 273      59.00000000  5.22393778E-09       2.00000000
  1 274      59.00000000  2.67522047E-09       2.00000000
  1 275      58.00000000  5.22393778E-09       2.00000000
  1 276      80.00000000  2.70975659E-09       2.00000000
  1 277      59.00000000  2.67522047E-09       2.00000000
  1 278      59.00000000  5.22393778E-09       2.00000000
  1 279      59.00000000  2.67522047E-09       2.00000000
  1 280      59.00000000  5.22393778E-09       2.00000000
  1 281      59.00000000  5.22393778E-09       2.00000000
  1 282      59.00000000  5.22393778E-09       2.00000000
  1 283      59.00000000  2.67522047E-09       2.00000000
  1 284      57.00000000  5.22393778E-09       2.00000000
  1 285      59.00000000  5.22393778E-09       2.00000000
  1 286      58.00000000  2.67522047E-09       2.00000000
  1 287      58.00000000  2.67522047E-09       2.00000000
  1 288      57.00000000  5.22393778E-09       2.00000000
  1 289      59.00000000  2.67522047E-09       2.00000000
  1 290      59.00000000  5.22393778E-09       2.00000000
  1 291      59.00000000  2.67522047E-09       2.00000000
  1 292      59.00000000  2.67522047E-09       2.00000000
  1 293      59.00000000  2.67522047E-09       2.00000000
  1 294      59.00000000  5.22393778E-09       2.00000000
  1 295      59.00000000  5.22393778E-09       2.00000000
  1 296      59.00000000  2.67522047E-09       2.00000000
  1 297      59.00000000  5.22393778E-09       2.00000000
  1 298      59.00000000  2.67522047E-09       2.00000000
  1 299      59.00000000  2.67522047E-09       2.00000000
  1 300      60.00000000  5.22393778E-09       2.00000000
  1 301      58.00000000  2.67522047E-09       2.00000000
  1 302      59.00000000  5.22393778E-09       2.00000000
  1 303      59.00000000  5.22393778E-09       2.00000000
  1 304      58.00000000  2.67522047E-09       2.00000000
  1 305      58.00000000  2.67522047E-09       2.00000000
  1 306      59.00000000  5.22393778E-09       2.00000000
  1 307      50.00000000  5.22393778E-09       2.00000000
  1 308      50.00000000  2.67522047E-09       2.00000000
  1 309      50.00000000  5.22393778E-09       2.00000000
  1 310      58.00000000  2.67522047E-09       2.00000000
  1 311      58.00000000  2.67522047E-09       2.00000000
  1 312      50.00000000  2.67522047E-09       2.00000000
  1 313      49.00000000  2.67522047E-09       2.00000000
  1 314      60.00000000  5.29137691E-09       2.00000000
  1 315      49.00000000  2.67522047E-09       2.00000000
  1 316      50.00000000  5.22393778E-09       2.00000000
  1 317      50.00000000  5.22393778E-09       2.00000000
  1 318      50.00000000  5.22393778E-09       2.00000000
  1 319      60.00000000  2.67522047E-09       2.00000000
  1 320      60.00000000  5.22393778E-09       2.00000000
  1 321      57.00000000  5.22393778E-09       2.00000000
  1 322      50.00000000  2.67522047E-09       2.00000000
  1 323      50.00000000  5.22393778E-09       2.00000000
  1 324      50.00000000  5.22393778E-09       2.00000000
  1 325      50.00000000  2.67522047E-09       2.00000000
  1 326      50.00000000  2.67522047E-09       2.00000000
  1 327      50.00000000  5.22393778E-09       2.00000000
  1 328      49.00000000  5.22393778E-09       2.00000000
  1 329      50.00000000  2.67522047E-09       2.00000000
  1 330      50.00000000  2.67522047E-09       2.00000000
  1 331      50.00000000  5.22393778E-09       2.00000000
  1 332      49.00000000  2.67522047E-09       2.00000000
  1 333      50.00000000  5.22393778E-09       2.00000000
  1 334      50.00000000  2.67522047E-09       2.00000000
  1 335      55.00000000  2.67522047E-09       2.00000000
  1 336      60.00000000  5.22393778E-09       2.00000000
  1 337      48.00000000  5.22393778E-09       2.00000000
  1 338      59.00000000  2.67522047E-09       2.00000000
  1 339      58.00000000  2.67522047E-09       2.00000000
  1 340      49.00000000  2.67522047E-09       2.00000000
  1 341      69.00000000  2.64304447E-09       2.00000000
  1 342      24.00000000  4.26192157E-09       2.00000000
  1 343     143.00000000  5.26826025E-09       2.00000000
  1 345     149.00000000  5.26826025E-09       2.00000000
  1 346     149.00000000  5.26826025E-09       2.00000000
  1 347     167.00000000  2.67629200E-09       2.00000000
  1 348     149.00000000  5.26826025E-09       2.00000000
  1 349     142.00000000  5.26826025E-09       2.00000000
  1 350       8.00000000  4.86067922E-09       2.00000000
  1 351     150.00000000  2.69791836E-09       2.00000000
  1 352     150.00000000  5.26826025E-09       2.00000000
  1 353     150.00000000  5.26826025E-09       2.00000000
  1 354     150.00000000  5.26826025E-09       2.00000000
  1 355     150.00000000  2.69791836E-09       2.00000000
  1 356     150.00000000  2.69791836E-09       2.00000000
  1 357     150.00000000  5.26826025E-09       2.00000000
  1 358     150.00000000  2.69791836E-09       2.00000000
  1 359     139.00000000  2.69791836E-09       2.00000000
  1 360     150.00000000  5.26826025E-09       2.00000000
  1 361     110.00000000  5.26826025E-09       2.00000000
  1 362     128.00000000  2.69791836E-09       2.00000000
  1 363     122.00000000  5.26826025E-09       2.00000000
  1 364     130.00000000  2.69791836E-09       2.00000000
  1 365     129.00000000  2.69791836E-09       2.00000000
  1 366     129.00000000  5.26826025E-09       2.00000000
  1 367     129.00000000  2.69791836E-09       2.00000000
  1 368     129.00000000  5.26826025E-09       2.00000000
  1 369     148.00000000  5.26826025E-09       2.00000000
  1 370     148.00000000  5.26826025E-09       2.00000000
  1 371     148.00000000  2.69791836E-09       2.00000000
  1 372     149.00000000  2.69791836E-09       2.00000000
  1 373     140.00000000  2.69791836E-09       2.00000000
  1 374     148.00000000  5.26826025E-09       2.00000000
  1 375     120.00000000  5.26826025E-09       2.00000000
  1 376     148.00000000  2.69791836E-09       2.00000000
  1 377     119.00000000  5.26826025E-09       2.00000000
  1 378     133.00000000  5.26826025E-09       2.00000000
  1 379     127.00000000  5.26826025E-09       2.00000000
  1 380     121.00000000  5.35855854E-09       2.00000000
  1 382     138.00000000  2.67629200E-09       2.00000000
  1 383     149.00000000  5.26826025E-09       2.00000000
  1 384     147.00000000  5.26826025E-09       2.00000000
  1 385     139.00000000  5.26826025E-09       2.00000000
  1 386     139.00000000  5.26826025E-09       2.00000000
  1 387     166.00000000  2.67629200E-09       2.00000000
  1 388     139.00000000  5.26826025E-09       2.00000000
  1 389     134.00000000  5.26826025E-09       2.00000000
  1 390      11.00000000  5.53066173E-09       2.00000000
  1 391     138.00000000  5.26826025E-09       2.00000000
  1 392     138.00000000  5.26826025E-09       2.00000000
  1 393     139.00000000  2.69791836E-09       2.00000000
  1 394     122.00000000  2.69791836E-09       2.00000000
  1 395     139.00000000  5.26826025E-09       2.00000000
  1 396     138.00000000  5.26826025E-09       2.00000000
  1 397     139.00000000  2.69791836E-09       2.00000000
  1 398     123.00000000  2.69791836E-09       2.00000000
  1 399     139.00000000  5.26826025E-09       2.00000000
  1 400     139.00000000  2.69791836E-09       2.00000000
  1 401     125.00000000  2.67629200E-09       2.00000000
  1 402     139.00000000  5.26826025E-09       2.00000000
  1 403     150.00000000  2.69791836E-09       2.00000000
  1 404     138.00000000  5.26826025E-09       2.00000000
  1 405     149.00000000  5.26826025E-09       2.00000000
  1 406     149.00000000  5.26826025E-09       2.00000000
  1 407     151.00000000  2.69791836E-09       2.00000000
  1 408     150.00000000  2.69791836E-09       2.00000000
  1 409     150.00000000  5.26826025E-09       2.00000000
  1 410     149.00000000  2.69791836E-09       2.00000000
  1 411     139.00000000  5.26826025E-09       2.00000000
  1 412     139.00000000  5.26826025E-09       2.00000000
  1 413     139.00000000  2.69791836E-09       2.00000000
  1 414     139.00000000  2.69791836E-09       2.00000000
  1 415     139.00000000  5.26826025E-09       2.00000000
  1 416     149.00000000  2.69791836E-09       2.00000000
  1 417     139.00000000  2.69791836E-09       2.00000000
  1 418     139.00000000  5.26826025E-09       2.00000000
  1 419     139.00000000  5.26826025E-09       2.00000000
  1 420     139.00000000  2.69791836E-09       2.00000000
  1 421     139.00000000  2.69791836E-09       2.00000000
  1 422     148.00000000  2.69791836E-09       2.00000000
  1 423     149.00000000  5.26826025E-09       2.00000000
  1 424     139.00000000  2.69791836E-09       2.00000000
  1 425     146.00000000  2.67629200E-09       2.00000000
  1 426       8.00000000  4.35225192E-09       2.00000000
  1 427      83.00000000  5.29828392E-09       2.00000000
  1 429      79.00000000  5.39491987E-09       2.00000000
  1 430       5.00000000  5.43125708E-09       2.00000000
  1 431      78.00000000  2.76278178E-09       2.00000000
  1 432      94.00000000  2.71329373E-09       2.00000000
  1 433      92.00000000  5.39491987E-09       2.00000000
  1 434     120.00000000  5.29828392E-09       2.00000000
  1 435      87.00000000  5.35855854E-09       2.00000000
  1 436      81.00000000  5.29828392E-09       2.00000000
  1 437      85.00000000  5.29828392E-09       2.00000000
  1 438      85.00000000  5.29828392E-09       2.00000000
  1 439      83.00000000  2.71329373E-09       2.00000000
  1 440      96.00000000  2.71329373E-09       2.00000000
  1 441      87.00000000  5.29828392E-09       2.00000000
  1 442     119.00000000  2.69791836E-09       2.00000000
  1 443      78.00000000  5.39491987E-09       2.00000000
  1 444      99.00000000  5.35855854E-09       2.00000000
  1 445      84.00000000  5.39491987E-09       2.00000000
  1 446      78.00000000  2.76278178E-09       2.00000000
  1 447      82.00000000  5.39491987E-09       2.00000000
  1 448      81.00000000  2.76278178E-09       2.00000000
  1 449      81.00000000  2.76278178E-09       2.00000000
  1 450      82.00000000  5.39491987E-09       2.00000000
  1 451      81.00000000  2.76278178E-09       2.00000000
  1 452      82.00000000  5.39491987E-09       2.00000000
  1 453      82.00000000  5.39491987E-09       2.00000000
  1 454      82.00000000  5.39491987E-09       2.00000000
  1 455      82.00000000  2.76278178E-09       2.00000000
  1 456      82.00000000  5.39491987E-09       2.00000000
  1 457      82.00000000  5.39491987E-09       2.00000000
  1 458      82.00000000  2.76278178E-09       2.00000000
  1 459      81.00000000  2.76278178E-09       2.00000000
  1 460      82.00000000  5.39491987E-09       2.00000000
  1 461      82.00000000  2.76278178E-09       2.00000000
  1 462     127.00000000  2.71329373E-09       2.00000000
  1 463      82.00000000  2.76278178E-09       2.00000000
  1 464      90.00000000  5.39491987E-09       2.00000000
  1 465      82.00000000  2.76278178E-09       2.00000000
  1 466     148.00000000  2.69791836E-09       2.00000000
  1 467     127.00000000  5.26826025E-09       2.00000000
  1 468     129.00000000  2.69791836E-09       2.00000000
  1 469     130.00000000  2.74416084E-09       2.00000000
  1 470     128.00000000  2.69791836E-09       2.00000000
  1 471     128.00000000  2.69791836E-09       2.00000000
  1 472     127.00000000  5.26826025E-09       2.00000000
  1 473     129.00000000  2.69791836E-09       2.00000000
  1 474     126.00000000  5.26826025E-09       2.00000000
  1 475     125.00000000  5.26826025E-09       2.00000000
  1 476     126.00000000  2.69791836E-09       2.00000000
  1 477     127.00000000  2.69791836E-09       2.00000000
  1 478     126.00000000  5.26826025E-09       2.00000000
  1 479     126.00000000  5.26826025E-09       2.00000000
  1 480     125.00000000  2.69791836E-09       2.00000000
  1 481     124.00000000  5.26826025E-09       2.00000000
  1 482     126.00000000  5.26826025E-09       2.00000000
  1 483     127.00000000  2.69791836E-09       2.00000000
  1 484     127.00000000  5.26826025E-09       2.00000000
  1 485     126.00000000  2.69791836E-09       2.00000000
  1 486     128.00000000  5.26826025E-09       2.00000000
  1 487     124.00000000  5.26826025E-09       2.00000000
  1 488     126.00000000  2.69791836E-09       2.00000000
  1 489     124.00000000  2.69791836E-09       2.00000000
  1 490     124.00000000  2.69791836E-09       2.00000000
  1 491     118.00000000  2.74416084E-09       2.00000000
  1 492     124.00000000  5.26826025E-09       2.00000000
  1 493     122.00000000  2.69791836E-09       2.00000000
  1 494     124.00000000  5.26826025E-09       2.00000000
  1 495     124.00000000  5.26826025E-09       2.00000000
  1 496     124.00000000  5.26826025E-09       2.00000000
  1 497     123.00000000  2.69791836E-09       2.00000000
  1 498     123.00000000  2.69791836E-09       2.00000000
  1 499     123.00000000  5.26826025E-09       2.00000000
  1 500     123.00000000  5.26826025E-09       2.00000000
  1 501     123.00000000  2.69791836E-09       2.00000000
  1 502      97.00000000  2.74416084E-09       2.00000000
  1 503     125.00000000  5.26826025E-09       2.00000000
  1 504      99.00000000  2.74416084E-09       2.00000000
  1 505     123.00000000  2.69791836E-09       2.00000000
  1 506     124.00000000  5.26826025E-09       2.00000000
  1 507     106.00000000  5.35855854E-09       2.00000000
  1 508     145.00000000  2.69791836E-09       2.00000000
  1 509     123.00000000  2.69791836E-09       2.00000000
  1 513      61.00000000  2.63712545E-09       2.00000000
  1 514     122.00000000  5.22603016E-09       2.00000000
  1 515      50.00000000  2.64209062E-09       2.00000000
  1 516     124.00000000  5.22969596E-09       2.00000000
  1 517     123.00000000  2.67816929E-09       2.00000000
  1 518      50.00000000  2.64209062E-09       2.00000000
  1 519      78.00000000  5.22969596E-09       2.00000000
  1 520      61.00000000  2.63712545E-09       2.00000000
  1 521      62.00000000  2.63712545E-09       2.00000000
  1 522      62.00000000  2.63712545E-09       2.00000000
  1 523      61.00000000  5.14954913E-09       2.00000000
  1 524      59.00000000  2.63712545E-09       2.00000000