# File generated by Flopy version 3.9.1 on 02/12/2026 at 09:25:14.
BEGIN options
  SAVE_FLOWS
END options

BEGIN dimensions
  MAXBOUND  3562
END dimensions

BEGIN period  1
  1 84 0.00000000E+00
  1 107 0.00000000E+00
  1 512 0.00000000E+00
  1 694 0.00000000E+00
  1 698 0.00000000E+00
  1 700 0.00000000E+00
  1 703 0.00000000E+00
  1 708 0.00000000E+00
  1 711 0.00000000E+00
  1 723 0.00000000E+00
  1 739 0.00000000E+00
  1 748 0.00000000E+00
  1 752 0.00000000E+00
  1 755 0.00000000E+00
  1 771 0.00000000E+00
  1 814 0.00000000E+00
  1 856 0.00000000E+00
  1 1382 0.00000000E+00
  1 1397 0.00000000E+00
  1 1400 0.00000000E+00
  1 1401 0.00000000E+00
  1 1759 0.00000000E+00
  1 1821 0.00000000E+00
  1 2023 0.00000000E+00
  1 2049 0.00000000E+00
  1 2055 0.00000000E+00
  1 2498 0.00000000E+00
  1 2507 0.00000000E+00
  1 2535 0.00000000E+00
  1 2546 0.00000000E+00
  1 2549 0.00000000E+00
  1 2551 0.00000000E+00
  1 2556 0.00000000E+00
  1 2560 0.00000000E+00
  1 2563 0.00000000E+00
  1 2755 0.00000000E+00
  1 2932 0.00000000E+00
  1 2938 0.00000000E+00
  1 2942 0.00000000E+00
  1 2944 0.00000000E+00
  1 2946 0.00000000E+00
  1 2969 0.00000000E+00
  1 3455 0.00000000E+00
  1 3457 0.00000000E+00
  1 3462 0.00000000E+00
  1 3489 0.00000000E+00
  1 3491 0.00000000E+00
  1 3493 0.00000000E+00
  1 3496 0.00000000E+00
  1 3625 0.00000000E+00
  1 3657 0.00000000E+00
  1 3662 0.00000000E+00
  1 3665 0.00000000E+00
  1 3666 0.00000000E+00
  1 3670 0.00000000E+00
  1 3671 0.00000000E+00
  1 3673 0.00000000E+00
  1 3674 0.00000000E+00
  1 3677 0.00000000E+00
  1 3678 0.00000000E+00
  1 3679 0.00000000E+00
  1 3680 0.00000000E+00
  1 3682 0.00000000E+00
  1 3684 0.00000000E+00
  1 3688 0.00000000E+00
  1 3690 0.00000000E+00
  1 3695 0.00000000E+00
  1 3696 0.00000000E+00
  1 3698 0.00000000E+00
  1 3702 0.00000000E+00
  1 3705 0.00000000E+00
  1 3706 0.00000000E+00
  1 3708 0.00000000E+00
  1 3709 0.00000000E+00
  1 3711 0.00000000E+00
  1 3715 0.00000000E+00
  1 3717 0.00000000E+00
  1 3718 0.00000000E+00
  1 3719 0.00000000E+00
  1 3723 0.00000000E+00
  1 3724 0.00000000E+00
  1 3726 0.00000000E+00
  1 3731 0.00000000E+00
  1 3733 0.00000000E+00
  1 3736 0.00000000E+00
  1 3738 0.00000000E+00
  1 3743 0.00000000E+00
  1 3746 0.00000000E+00
  1 3748 0.00000000E+00
  1 3759 0.00000000E+00
  1 3762 0.00000000E+00
  1 3782 0.00000000E+00
  1 3783 0.00000000E+00
  1 3791 0.00000000E+00
  1 3793 0.00000000E+00
  1 3794 0.00000000E+00
  1 3795 0.00000000E+00
  1 3799 0.00000000E+00
  1 3802 0.00000000E+00
  1 3804 0.00000000E+00
  1 3818 0.00000000E+00
  1 3824 0.00000000E+00
  1 3832 0.00000000E+00
  1 3833 0.00000000E+00
  1 3847 0.00000000E+00
  1 3849 0.00000000E+00
  1 3850 0.00000000E+00
  1 3851 0.00000000E+00
  1 3854 0.00000000E+00
  1 3856 0.00000000E+00
  1 3859 0.00000000E+00
  1 3861 0.00000000E+00
  1 3862 0.00000000E+00
  1 3864 0.00000000E+00
  1 3865 0.00000000E+00
  1 3866 0.00000000E+00
  1 3868 0.00000000E+00
  1 3869 0.00000000E+00
  1 3921 0.00000000E+00
  1 3924 0.00000000E+00
  1 3925 0.00000000E+00
  1 3928 0.00000000E+00
  1 3930 0.00000000E+00
  1 3943 0.00000000E+00
  1 3944 0.00000000E+00
  1 3947 0.00000000E+00
  1 3948 0.00000000E+00
  1 3950 0.00000000E+00
  1 3954 0.00000000E+00
  1 3958 0.00000000E+00
  1 3963 0.00000000E+00
  1 3972 0.00000000E+00
  1 3974 0.00000000E+00
  1 3975 0.00000000E+00
  1 3980 0.00000000E+00
  1 3993 0.00000000E+00
  1 3995 0.00000000E+00
  1 4006 0.00000000E+00
  1 4008 0.00000000E+00
  1 4010 0.00000000E+00
  1 4016 0.00000000E+00
  1 4022 0.00000000E+00
  1 4030 0.00000000E+00
  1 4039 0.00000000E+00
  1 4040 0.00000000E+00
  1 4047 0.00000000E+00
  1 4048 0.00000000E+00
  1 4058 0.00000000E+00
  1 4061 0.00000000E+00
  1 4063 0.00000000E+00
  1 4065 0.00000000E+00
  1 4068 0.00000000E+00
  1 4070 0.00000000E+00
  1 4071 0.00000000E+00
  1 4072 0.00000000E+00
  1 4081 0.00000000E+00
  1 4082 0.00000000E+00
  1 4084 0.00000000E+00
  1 4086 0.00000000E+00
  1 4092 0.00000000E+00
  1 4101 0.00000000E+00
  1 4107 0.00000000E+00
  1 4111 0.00000000E+00
  1 4124 0.00000000E+00
  1 4128 0.00000000E+00
  1 4129 0.00000000E+00
  1 4130 0.00000000E+00
  1 4132 0.00000000E+00
  1 4825 0.00000000E+00
  1 4830 0.00000000E+00
  1 4832 0.00000000E+00
  1 4833 0.00000000E+00
  1 4837 0.00000000E+00
  1 4838 0.00000000E+00
  1 4840 0.00000000E+00
  1 4842 0.00000000E+00
  1 4843 0.00000000E+00
  1 4845 0.00000000E+00
  1 4850 0.00000000E+00
  1 4851 0.00000000E+00
  1 4853 0.00000000E+00
  1 4854 0.00000000E+00
  1 4857 0.00000000E+00
  1 4862 0.00000000E+00
  1 4864 0.00000000E+00
  1 4868 0.00000000E+00
  1 4870 0.00000000E+00
  1 4874 0.00000000E+00
  1 4881 0.00000000E+00
  1 4885 0.00000000E+00
  1 4886 0.00000000E+00
  1 4887 0.00000000E+00
  1 4888 0.00000000E+00
  1 4890 0.00000000E+00
  1 4892 0.00000000E+00
  1 4893 0.00000000E+00
  1 4895 0.00000000E+00
  1 4896 0.00000000E+00
  1 4899 0.00000000E+00
  1 4904 0.00000000E+00
  1 4905 0.00000000E+00
  1 4906 0.00000000E+00
  1 4909 0.00000000E+00
  1 4911 0.00000000E+00
  1 4914 0.00000000E+00
  1 4916 0.00000000E+00
  1 4917 0.00000000E+00
  1 4919 0.00000000E+00
  1 4924 0.00000000E+00
  1 4926 0.00000000E+00
  1 4937 0.00000000E+00
  1 4938 0.00000000E+00
  1 4941 0.00000000E+00
  1 4942 0.00000000E+00
  1 4944 0.00000000E+00
  1 4946 0.00000000E+00
  1 4948 0.00000000E+00
  1 4951 0.00000000E+00
  1 4952 0.00000000E+00
  1 4965 0.00000000E+00
  1 4970 0.00000000E+00
  1 4971 0.00000000E+00
  1 4972 0.00000000E+00
  1 4974 0.00000000E+00
  1 4977 0.00000000E+00
  1 4978 0.00000000E+00
  1 4979 0.00000000E+00
  1 4980 0.00000000E+00
  1 4983 0.00000000E+00
  1 4984 0.00000000E+00
  1 4986 0.00000000E+00
  1 4990 0.00000000E+00
  1 4992 0.00000000E+00
  1 4998 0.00000000E+00
  1 5001 0.00000000E+00
  1 5014 0.00000000E+00
  1 5015 0.00000000E+00
  1 5018 0.00000000E+00
  1 5019 0.00000000E+00
  1 5020 0.00000000E+00
  1 5022 0.00000000E+00
  1 5027 0.00000000E+00
  1 5030 0.00000000E+00
  1 5049 0.00000000E+00
  1 5053 0.00000000E+00
  1 5058 0.00000000E+00
  1 5059 0.00000000E+00
  1 5070 0.00000000E+00
  1 5075 0.00000000E+00
  1 5079 0.00000000E+00
  1 5083 0.00000000E+00
  1 5084 0.00000000E+00
  1 5086 0.00000000E+00
  1 5087 0.00000000E+00
  1 5089 0.00000000E+00
  1 5090 0.00000000E+00
  1 5091 0.00000000E+00
  1 5096 0.00000000E+00
  1 5097 0.00000000E+00
  1 5102 0.00000000E+00
  1 5104 0.00000000E+00
  1 5106 0.00000000E+00
  1 5109 0.00000000E+00
  1 5110 0.00000000E+00
  1 5111 0.00000000E+00
  1 5113 0.00000000E+00
  1 5115 0.00000000E+00
  1 5116 0.00000000E+00
  1 5119 0.00000000E+00
  1 5124 0.00000000E+00
  1 5127 0.00000000E+00
  1 5134 0.00000000E+00
  1 5136 0.00000000E+00
  1 5139 0.00000000E+00
  1 5158 0.00000000E+00
  1 5159 0.00000000E+00
  1 5161 0.00000000E+00
  1 5164 0.00000000E+00
  1 5345 0.00000000E+00
  1 5346 0.00000000E+00
  1 5349 0.00000000E+00
  1 5350 0.00000000E+00
  1 5352 0.00000000E+00
  1 5354 0.00000000E+00
  1 5372 0.00000000E+00
  1 5376 0.00000000E+00
  1 5377 0.00000000E+00
  1 5381 0.00000000E+00
  1 5388 0.00000000E+00
  1 5410 0.00000000E+00
  1 5414 0.00000000E+00
  1 5415 0.00000000E+00
  1 5418 0.00000000E+00
  1 5474 0.00000000E+00
  1 5478 0.00000000E+00
  1 5480 0.00000000E+00
  1 5498 0.00000000E+00
  1 5500 0.00000000E+00
  1 5504 0.00000000E+00
  1 5508 0.00000000E+00
  1 5516 0.00000000E+00
  1 5536 0.00000000E+00
  1 5964 0.00000000E+00
  1 7006 0.00000000E+00
  1 7019 0.00000000E+00
  1 7341 0.00000000E+00
  1 7344 0.00000000E+00
  1 7583 0.00000000E+00
  1 8275 0.00000000E+00
  1 9135 0.00000000E+00
  1 9139 0.00000000E+00
  1 9140 0.00000000E+00
  1 9142 0.00000000E+00
  1 9149 0.00000000E+00
  1 9151 0.00000000E+00
  1 9152 0.00000000E+00
  1 9164 0.00000000E+00
  1 9174 0.00000000E+00
  1 9181 0.00000000E+00
  1 9187 0.00000000E+00
  1 9188 0.00000000E+00
  1 9192 0.00000000E+00
  1 9193 0.00000000E+00
  1 9196 0.00000000E+00
  1 9197 0.00000000E+00
  1 9202 0.00000000E+00
  1 9206 0.00000000E+00
  1 9209 0.00000000E+00
  1 9211 0.00000000E+00
  1 9212 0.00000000E+00
  1 9213 0.00000000E+00
  1 9236 0.00000000E+00
  1 9260 0.00000000E+00
  1 9264 0.00000000E+00
  1 9268 0.00000000E+00
  1 9269 0.00000000E+00
  1 9272 0.00000000E+00
  1 9273 0.00000000E+00
  1 9278 0.00000000E+00
  1 9283 0.00000000E+00
  1 9286 0.00000000E+00
  1 9289 0.00000000E+00
  1 9300 0.00000000E+00
  1 9530 0.00000000E+00
  1 9532 0.00000000E+00
  1 9546 0.00000000E+00
  1 9548 0.00000000E+00
  1 9549 0.00000000E+00
  1 9550 0.00000000E+00
  1 9603 0.00000000E+00
  1 9608 0.00000000E+00
  1 9610 0.00000000E+00
  1 9633 0.00000000E+00
  1 9638 0.00000000E+00
  1 9639 0.00000000E+00
  1 9652 0.00000000E+00
  1 10283 0.00000000E+00
  1 10284 0.00000000E+00
  1 10286 0.00000000E+00
  1 10288 0.00000000E+00
  1 10292 0.00000000E+00
  1 10295 0.00000000E+00
  1 10296 0.00000000E+00
  1 10297 0.00000000E+00
  1 10298 0.00000000E+00
  1 10300 0.00000000E+00
  1 10301 0.00000000E+00
  1 10304 0.00000000E+00
  1 10305 0.00000000E+00
  1 10307 0.00000000E+00
  1 10308 0.00000000E+00
  1 10310 0.00000000E+00
  1 10313 0.00000000E+00
  1 10315 0.00000000E+00
  1 10318 0.00000000E+00
  1 10320 0.00000000E+00
  1 10322 0.00000000E+00
  1 10324 0.00000000E+00
  1 10329 0.00000000E+00
  1 10330 0.00000000E+00
  1 10332 0.00000000E+00
  1 10343 0.00000000E+00
  1 10350 0.00000000E+00
  1 10351 0.00000000E+00
  1 10352 0.00000000E+00
  1 10353 0.00000000E+00
  1 10355 0.00000000E+00
  1 10356 0.00000000E+00
  1 10359 0.00000000E+00
  1 10361 0.00000000E+00
  1 10363 0.00000000E+00
  1 10364 0.00000000E+00
  1 10368 0.00000000E+00
  1 10380 0.00000000E+00
  1 10383 0.00000000E+00
  1 10384 0.00000000E+00
  1 10388 0.00000000E+00
  1 10392 0.00000000E+00
  1 10402 0.00000000E+00
  1 10418 0.00000000E+00
  1 10425 0.00000000E+00
  1 10427 0.00000000E+00
  1 10429 0.00000000E+00
  1 10430 0.00000000E+00
  1 10431 0.00000000E+00
  1 10432 0.00000000E+00
  1 10443 0.00000000E+00
  1 10444 0.00000000E+00
  1 10455 0.00000000E+00
  1 10456 0.00000000E+00
  1 10457 0.00000000E+00
  1 10460 0.00000000E+00
  1 10462 0.00000000E+00
  1 10463 0.00000000E+00
  1 10478 0.00000000E+00
  1 10491 0.00000000E+00
  1 10493 0.00000000E+00
  1 10505 0.00000000E+00
  1 10507 0.00000000E+00
  1 10508 0.00000000E+00
  1 10509 0.00000000E+00
  1 10515 0.00000000E+00
  1 10523 0.00000000E+00
  1 10527 0.00000000E+00
  1 10531 0.00000000E+00
  1 10539 0.00000000E+00
  1 10548 0.00000000E+00
  1 10555 0.00000000E+00
  1 10557 0.00000000E+00
  1 10579 0.00000000E+00
  1 10583 0.00000000E+00
  1 10587 0.00000000E+00
  1 10588 0.00000000E+00
  1 10594 0.00000000E+00
  1 10596 0.00000000E+00
  1 10618 0.00000000E+00
  1 10621 0.00000000E+00
  1 10635 0.00000000E+00
  1 10645 0.00000000E+00
  1 10648 0.00000000E+00
  1 10660 0.00000000E+00
  1 10663 0.00000000E+00
  1 10665 0.00000000E+00
  1 10666 0.00000000E+00
  1 10668 0.00000000E+00
  1 10671 0.00000000E+00
  1 10675 0.00000000E+00
  1 10677 0.00000000E+00
  1 10679 0.00000000E+00
  1 10684 0.00000000E+00
  1 10769 0.00000000E+00
  1 10772 0.00000000E+00
  1 10775 0.00000000E+00
  1 10777 0.00000000E+00
  1 10778 0.00000000E+00
  1 10788 0.00000000E+00
  1 10789 0.00000000E+00
  1 10790 0.00000000E+00
  1 10793 0.00000000E+00
  1 10796 0.00000000E+00
  1 10805 0.00000000E+00
  1 10813 0.00000000E+00
  1 10819 0.00000000E+00
  1 10820 0.00000000E+00
  1 10823 0.00000000E+00
  1 10824 0.00000000E+00
  1 10827 0.00000000E+00
  1 10833 0.00000000E+00
  1 10837 0.00000000E+00
  1 10839 0.00000000E+00
  1 10840 0.00000000E+00
  1 10842 0.00000000E+00
  1 10848 0.00000000E+00
  1 10855 0.00000000E+00
  1 10857 0.00000000E+00
  1 10860 0.00000000E+00
  1 10868 0.00000000E+00
  1 10869 0.00000000E+00
  1 10870 0.00000000E+00
  1 10872 0.00000000E+00
  1 10884 0.00000000E+00
  1 10887 0.00000000E+00
  1 10888 0.00000000E+00
  1 10894 0.00000000E+00
  1 10898 0.00000000E+00
  1 10910 0.00000000E+00
  1 10915 0.00000000E+00
  1 10921 0.00000000E+00
  1 10925 0.00000000E+00
  1 10931 0.00000000E+00
  1 10933 0.00000000E+00
  1 10934 0.00000000E+00
  1 10935 0.00000000E+00
  1 10937 0.00000000E+00
  1 10959 0.00000000E+00
  1 10963 0.00000000E+00
  1 10964 0.00000000E+00
  1 10966 0.00000000E+00
  1 10969 0.00000000E+00
  1 10970 0.00000000E+00
  1 10971 0.00000000E+00
  1 10972 0.00000000E+00
  1 10973 0.00000000E+00
  1 10974 0.00000000E+00
  1 10976 0.00000000E+00
  1 10981 0.00000000E+00
  1 10983 0.00000000E+00
  1 10984 0.00000000E+00
  1 10986 0.00000000E+00
  1 10988 0.00000000E+00
  1 10992 0.00000000E+00
  1 10998 0.00000000E+00
  1 11000 0.00000000E+00
  1 11002 0.00000000E+00
  1 11004 0.00000000E+00
  1 11008 0.00000000E+00
  1 11012 0.00000000E+00
  1 11020 0.00000000E+00
  1 11101 0.00000000E+00
  1 11113 0.00000000E+00
  1 11124 0.00000000E+00
  1 11130 0.00000000E+00
  1 11133 0.00000000E+00
  1 11135 0.00000000E+00
  1 11138 0.00000000E+00
  1 11139 0.00000000E+00
  1 11142 0.00000000E+00
  1 11146 0.00000000E+00
  1 11149 0.00000000E+00
  1 11154 0.00000000E+00
  1 11155 0.00000000E+00
  1 11158 0.00000000E+00
  1 11159 0.00000000E+00
  1 11167 0.00000000E+00
  1 11173 0.00000000E+00
  1 11184 0.00000000E+00
  1 11185 0.00000000E+00
  1 11189 0.00000000E+00
  1 11192 0.00000000E+00
  1 11194 0.00000000E+00
  1 11201 0.00000000E+00
  1 11203 0.00000000E+00
  1 11205 0.00000000E+00
  1 11207 0.00000000E+00
  1 11209 0.00000000E+00
  1 11212 0.00000000E+00
  1 11214 0.00000000E+00
  1 11219 0.00000000E+00
  1 11223 0.00000000E+00
  1 11228 0.00000000E+00
  1 11230 0.00000000E+00
  1 11232 0.00000000E+00
  1 11234 0.00000000E+00
  1 11236 0.00000000E+00
  1 11238 0.00000000E+00
  1 11240 0.00000000E+00
  1 11242 0.00000000E+00
  1 11244 0.00000000E+00
  1 11246 0.00000000E+00
  1 11248 0.00000000E+00
  1 11251 0.00000000E+00
  1 11268 0.00000000E+00
  1 11270 0.00000000E+00
  1 11276 0.00000000E+00
  1 11278 0.00000000E+00
  1 11280 0.00000000E+00
  1 11282 0.00000000E+00
  1 11284 0.00000000E+00
  1 11286 0.00000000E+00
  1 11288 0.00000000E+00
  1 11290 0.00000000E+00
  1 11292 0.00000000E+00
  1 11294 0.00000000E+00
  1 11296 0.00000000E+00
  1 11298 0.00000000E+00
  1 11300 0.00000000E+00
  1 11302 0.00000000E+00
  1 11306 0.00000000E+00
  1 11308 0.00000000E+00
  1 11312 0.00000000E+00
  1 11314 0.00000000E+00
  1 11320 0.00000000E+00
  1 11324 0.00000000E+00
  1 11326 0.00000000E+00
  1 11332 0.00000000E+00
  1 11334 0.00000000E+00
  1 11370 0.00000000E+00
  1 11371 0.00000000E+00
  1 11450 0.00000000E+00
  1 11453 0.00000000E+00
  1 11454 0.00000000E+00
  1 11458 0.00000000E+00
  1 11461 0.00000000E+00
  1 11462 0.00000000E+00
  1 11464 0.00000000E+00
  1 11467 0.00000000E+00
  1 11469 0.00000000E+00
  1 11471 0.00000000E+00
  1 11477 0.00000000E+00
  1 11481 0.00000000E+00
  1 11485 0.00000000E+00
  1 11491 0.00000000E+00
  1 11494 0.00000000E+00
  1 11496 0.00000000E+00
  1 11500 0.00000000E+00
  1 11502 0.00000000E+00
  1 11507 0.00000000E+00
  1 11509 0.00000000E+00
  1 11513 0.00000000E+00
  1 11615 0.00000000E+00
  1 11836 0.00000000E+00
  1 11867 0.00000000E+00
  1 11872 0.00000000E+00
  1 11874 0.00000000E+00
  1 11876 0.00000000E+00
  1 11879 0.00000000E+00
  1 11886 0.00000000E+00
  1 11888 0.00000000E+00
  1 11892 0.00000000E+00
  1 11894 0.00000000E+00
  1 11900 0.00000000E+00
  1 11903 0.00000000E+00
  1 11906 0.00000000E+00
  1 11908 0.00000000E+00
  1 11910 0.00000000E+00
  1 11913 0.00000000E+00
  1 11915 0.00000000E+00
  1 11917 0.00000000E+00
  1 11919 0.00000000E+00
  1 11923 0.00000000E+00
  1 11926 0.00000000E+00
  1 11928 0.00000000E+00
  1 11930 0.00000000E+00
  1 11932 0.00000000E+00
  1 11934 0.00000000E+00
  1 11936 0.00000000E+00
  1 11939 0.00000000E+00
  1 11941 0.00000000E+00
  1 11943 0.00000000E+00
  1 11947 0.00000000E+00
  1 11949 0.00000000E+00
  1 11953 0.00000000E+00
  1 11955 0.00000000E+00
  1 11958 0.00000000E+00
  1 11962 0.00000000E+00
  1 11964 0.00000000E+00
  1 11972 0.00000000E+00
  1 11975 0.00000000E+00
  1 11978 0.00000000E+00
  1 11980 0.00000000E+00
  1 11982 0.00000000E+00
  1 11986 0.00000000E+00
  1 11988 0.00000000E+00
  1 11990 0.00000000E+00
  1 12000 0.00000000E+00
  1 12002 0.00000000E+00
  1 12004 0.00000000E+00
  1 12006 0.00000000E+00
  1 12008 0.00000000E+00
  1 12012 0.00000000E+00
  1 12014 0.00000000E+00
  1 12020 0.00000000E+00
  1 12022 0.00000000E+00
  1 12024 0.00000000E+00
  1 12026 0.00000000E+00
  1 12035 0.00000000E+00
  1 12040 0.00000000E+00
  1 12048 0.00000000E+00
  1 12051 0.00000000E+00
  1 12054 0.00000000E+00
  1 12066 0.00000000E+00
  1 12173 0.00000000E+00
  1 12179 0.00000000E+00
  1 12181 0.00000000E+00
  1 12183 0.00000000E+00
  1 12186 0.00000000E+00
  1 12189 0.00000000E+00
  1 12191 0.00000000E+00
  1 12198 0.00000000E+00
  1 12200 0.00000000E+00
  1 12202 0.00000000E+00
  1 12204 0.00000000E+00
  1 12206 0.00000000E+00
  1 12208 0.00000000E+00
  1 12211 0.00000000E+00
  1 12213 0.00000000E+00
  1 12215 0.00000000E+00
  1 12217 0.00000000E+00
  1 12219 0.00000000E+00
  1 12221 0.00000000E+00
  1 12227 0.00000000E+00
  1 12232 0.00000000E+00
  1 12238 0.00000000E+00
  1 12244 0.00000000E+00
  1 12246 0.00000000E+00
  1 12248 0.00000000E+00
  1 12600 0.00000000E+00
  1 12618 0.00000000E+00
  1 12620 0.00000000E+00
  1 12622 0.00000000E+00
  1 12627 0.00000000E+00
  1 12629 0.00000000E+00
  1 12636 0.00000000E+00
  1 12640 0.00000000E+00
  1 12642 0.00000000E+00
  1 12645 0.00000000E+00
  1 12647 0.00000000E+00
  1 12649 0.00000000E+00
  1 12652 0.00000000E+00
  1 12655 0.00000000E+00
  1 12658 0.00000000E+00
  1 12664 0.00000000E+00
  1 12666 0.00000000E+00
  1 12670 0.00000000E+00
  1 12672 0.00000000E+00
  1 12676 0.00000000E+00
  1 12678 0.00000000E+00
  1 12681 0.00000000E+00
  1 12686 0.00000000E+00
  1 12687 0.00000000E+00
  1 12692 0.00000000E+00
  1 12694 0.00000000E+00
  1 12696 0.00000000E+00
  1 12698 0.00000000E+00
  1 12706 0.00000000E+00
  1 12707 0.00000000E+00
  1 12711 0.00000000E+00
  1 12714 0.00000000E+00
  1 12719 0.00000000E+00
  1 12724 0.00000000E+00
  1 12726 0.00000000E+00
  1 12728 0.00000000E+00
  1 12731 0.00000000E+00
  1 12734 0.00000000E+00
  1 12745 0.00000000E+00
  1 12747 0.00000000E+00
  1 12750 0.00000000E+00
  1 12753 0.00000000E+00
  1 12755 0.00000000E+00
  1 12757 0.00000000E+00
  1 12759 0.00000000E+00
  1 12761 0.00000000E+00
  1 12763 0.00000000E+00
  1 12766 0.00000000E+00
  1 12768 0.00000000E+00
  1 12770 0.00000000E+00
  1 12774 0.00000000E+00
  1 12777 0.00000000E+00
  1 12781 0.00000000E+00
  1 12804 0.00000000E+00
  1 12808 0.00000000E+00
  1 12811 0.00000000E+00
  1 12813 0.00000000E+00
  1 12947 0.00000000E+00
  1 12949 0.00000000E+00
  1 12953 0.00000000E+00
  1 12958 0.00000000E+00
  1 12960 0.00000000E+00
  1 12963 0.00000000E+00
  1 12967 0.00000000E+00
  1 12969 0.00000000E+00
  1 12972 0.00000000E+00
  1 12975 0.00000000E+00
  1 12994 0.00000000E+00
  1 13004 0.00000000E+00
  1 13007 0.00000000E+00
  1 13408 0.00000000E+00
  1 13410 0.00000000E+00
  1 13414 0.00000000E+00
  1 13416 0.00000000E+00
  1 13421 0.00000000E+00
  1 13424 0.00000000E+00
  1 13428 0.00000000E+00
  1 13432 0.00000000E+00
  1 13434 0.00000000E+00
  1 13441 0.00000000E+00
  1 13443 0.00000000E+00
  1 13446 0.00000000E+00
  1 13453 0.00000000E+00
  1 13455 0.00000000E+00
  1 13458 0.00000000E+00
  1 13460 0.00000000E+00
  1 13465 0.00000000E+00
  1 13470 0.00000000E+00
  1 13473 0.00000000E+00
  1 13475 0.00000000E+00
  1 13482 0.00000000E+00
  1 13484 0.00000000E+00
  1 13486 0.00000000E+00
  1 13489 0.00000000E+00
  1 13492 0.00000000E+00
  1 13503 0.00000000E+00
  1 13509 0.00000000E+00
  1 13511 0.00000000E+00
  1 13515 0.00000000E+00
  1 13517 0.00000000E+00
  1 13519 0.00000000E+00
  1 13521 0.00000000E+00
  1 13525 0.00000000E+00
  1 13540 0.00000000E+00
  1 13546 0.00000000E+00
  1 13548 0.00000000E+00
  1 13550 0.00000000E+00
  1 13690 0.00000000E+00
  1 13695 0.00000000E+00
  1 13698 0.00000000E+00
  1 13700 0.00000000E+00
  1 13729 0.00000000E+00
  1 13994 0.00000000E+00
  1 14009 0.00000000E+00
  1 14016 0.00000000E+00
  1 14020 0.00000000E+00
  1 14023 0.00000000E+00
  1 14026 0.00000000E+00
  1 14036 0.00000000E+00
  1 14045 0.00000000E+00
  1 14047 0.00000000E+00
  1 14062 0.00000000E+00
  1 14300 0.00000000E+00
  1 14368 0.00000000E+00
  1 14385 0.00000000E+00
  1 14396 0.00000000E+00
  1 14400 0.00000000E+00
  1 14489 0.00000000E+00
  1 14540 0.00000000E+00
  1 14584 0.00000000E+00
  1 17365 0.00000000E+00
  1 17366 0.00000000E+00
  1 18086 0.00000000E+00
  1 18361 0.00000000E+00
  1 18519 0.00000000E+00
  1 18521 0.00000000E+00
  1 18600 0.00000000E+00
  1 18651 0.00000000E+00
  1 18700 0.00000000E+00
  1 18702 0.00000000E+00
  1 18811 0.00000000E+00
  1 18885 0.00000000E+00
  1 18919 0.00000000E+00
  1 18929 0.00000000E+00
  1 18930 0.00000000E+00
  1 18931 0.00000000E+00
  1 18947 0.00000000E+00
  1 18948 0.00000000E+00
  1 19073 0.00000000E+00
  1 19084 0.00000000E+00
  1 19257 0.00000000E+00
  1 19270 0.00000000E+00
  1 19314 0.00000000E+00
  1 19315 0.00000000E+00
  1 19322 0.00000000E+00
  1 19424 0.00000000E+00
  1 20571 0.00000000E+00
  1 20572 0.00000000E+00
  1 20576 0.00000000E+00
  1 20585 0.00000000E+00
  1 20597 0.00000000E+00
  1 20601 0.00000000E+00
  1 20604 0.00000000E+00
  1 20608 0.00000000E+00
  1 20735 0.00000000E+00
  1 20750 0.00000000E+00
  1 20760 0.00000000E+00
  1 20761 0.00000000E+00
  1 20814 0.00000000E+00
  1 20858 0.00000000E+00
  1 20902 0.00000000E+00
  1 20904 0.00000000E+00
  1 21055 0.00000000E+00
  1 21219 0.00000000E+00
  1 21443 0.00000000E+00
  1 21444 0.00000000E+00
  1 21450 0.00000000E+00
  1 21452 0.00000000E+00
  1 21454 0.00000000E+00
  1 21521 0.00000000E+00
  1 21522 0.00000000E+00
  1 21673 0.00000000E+00
  1 21674 0.00000000E+00
  1 21846 0.00000000E+00
  1 22237 0.00000000E+00
  1 22238 0.00000000E+00
  1 22277 0.00000000E+00
  1 22278 0.00000000E+00
  1 22291 0.00000000E+00
  1 22292 0.00000000E+00
  1 22311 0.00000000E+00
  1 22312 0.00000000E+00
  1 22315 0.00000000E+00
  1 22316 0.00000000E+00
  1 22317 0.00000000E+00
  1 22318 0.00000000E+00
  1 22355 0.00000000E+00
  1 22356 0.00000000E+00
  1 22379 0.00000000E+00
  1 22380 0.00000000E+00
  1 22433 0.00000000E+00
  1 22434 0.00000000E+00
  1 22487 0.00000000E+00
  1 22488 0.00000000E+00
  1 22495 0.00000000E+00
  1 22496 0.00000000E+00
  1 22511 0.00000000E+00
  1 22512 0.00000000E+00
  1 22519 0.00000000E+00
  1 22520 0.00000000E+00
  1 22531 0.00000000E+00
  1 22532 0.00000000E+00
  1 22703 0.00000000E+00
  1 22704 0.00000000E+00
  1 22709 0.00000000E+00
  1 22711 0.00000000E+00
  1 22719 0.00000000E+00
  1 22747 0.00000000E+00
  1 22748 0.00000000E+00
  1 22752 0.00000000E+00
  1 22754 0.00000000E+00
  1 22757 0.00000000E+00
  1 22759 0.00000000E+00
  1 22762 0.00000000E+00
  1 22763 0.00000000E+00
  1 22764 0.00000000E+00
  1 22765 0.00000000E+00
  1 22766 0.00000000E+00
  1 22767 0.00000000E+00
  1 22770 0.00000000E+00
  1 22771 0.00000000E+00
  1 22772 0.00000000E+00
  1 22773 0.00000000E+00
  1 22774 0.00000000E+00
  1 22775 0.00000000E+00
  1 22776 0.00000000E+00
  1 22777 0.00000000E+00
  1 22780 0.00000000E+00
  1 22781 0.00000000E+00
  1 22782 0.00000000E+00
  1 22783 0.00000000E+00
  1 22800 0.00000000E+00
  1 22801 0.00000000E+00
  1 22824 0.00000000E+00
  1 22825 0.00000000E+00
  1 22912 0.00000000E+00
  1 22913 0.00000000E+00
  1 22914 0.00000000E+00
  1 22915 0.00000000E+00
  1 22918 0.00000000E+00
  1 22919 0.00000000E+00
  1 22920 0.00000000E+00
  1 22921 0.00000000E+00
  1 22922 0.00000000E+00
  1 22925 0.00000000E+00
  1 22926 0.00000000E+00
  1 22927 0.00000000E+00
  1 22928 0.00000000E+00
  1 22929 0.00000000E+00
  1 22930 0.00000000E+00
  1 22937 0.00000000E+00
  1 22938 0.00000000E+00
  1 22939 0.00000000E+00
  1 22940 0.00000000E+00
  1 22941 0.00000000E+00
  1 22942 0.00000000E+00
  1 22943 0.00000000E+00
  1 22944 0.00000000E+00
  1 22945 0.00000000E+00
  1 22946 0.00000000E+00
  1 22947 0.00000000E+00
  1 22948 0.00000000E+00
  1 22949 0.00000000E+00
  1 22950 0.00000000E+00
  1 22951 0.00000000E+00
  1 22952 0.00000000E+00
  1 22961 0.00000000E+00
  1 22962 0.00000000E+00
  1 22997 0.00000000E+00
  1 22998 0.00000000E+00
  1 23027 0.00000000E+00
  1 23028 0.00000000E+00
  1 23029 0.00000000E+00
  1 23030 0.00000000E+00
  1 23109 0.00000000E+00
  1 23114 0.00000000E+00
  1 23126 0.00000000E+00
  1 23155 0.00000000E+00
  1 23158 0.00000000E+00
  1 23168 0.00000000E+00
  1 23171 0.00000000E+00
  1 23172 0.00000000E+00
  1 23173 0.00000000E+00
  1 23177 0.00000000E+00
  1 23179 0.00000000E+00
  1 23183 0.00000000E+00
  1 23185 0.00000000E+00
  1 23188 0.00000000E+00
  1 23190 0.00000000E+00
  1 23197 0.00000000E+00
  1 23200 0.00000000E+00
  1 23203 0.00000000E+00
  1 23206 0.00000000E+00
  1 23261 0.00000000E+00
  1 23262 0.00000000E+00
  1 23263 0.00000000E+00
  1 23267 0.00000000E+00
  1 23270 0.00000000E+00
  1 23273 0.00000000E+00
  1 23275 0.00000000E+00
  1 23279 0.00000000E+00
  1 23282 0.00000000E+00
  1 23284 0.00000000E+00
  1 23288 0.00000000E+00
  1 23290 0.00000000E+00
  1 23293 0.00000000E+00
  1 23306 0.00000000E+00
  1 23307 0.00000000E+00
  1 23309 0.00000000E+00
  1 23318 0.00000000E+00
  1 23398 0.00000000E+00
  1 23399 0.00000000E+00
  1 23406 0.00000000E+00
  1 23491 0.00000000E+00
  1 23492 0.00000000E+00
  1 23494 0.00000000E+00
  1 23496 0.00000000E+00
  1 23497 0.00000000E+00
  1 23499 0.00000000E+00
  1 23501 0.00000000E+00
  1 23562 0.00000000E+00
  1 23565 0.00000000E+00
  1 23566 0.00000000E+00
  1 23567 0.00000000E+00
  1 23568 0.00000000E+00
  1 23569 0.00000000E+00
  1 23570 0.00000000E+00
  1 23571 0.00000000E+00
  1 23572 0.00000000E+00
  1 23582 0.00000000E+00
  1 23584 0.00000000E+00
  1 23587 0.00000000E+00
  1 23590 0.00000000E+00
  1 23593 0.00000000E+00
  1 23597 0.00000000E+00
  1 23599 0.00000000E+00
  1 23603 0.00000000E+00
  1 23609 0.00000000E+00
  1 23612 0.00000000E+00
  1 23615 0.00000000E+00
  1 23619 0.00000000E+00
  1 23621 0.00000000E+00
  1 23624 0.00000000E+00
  1 23625 0.00000000E+00
  1 23627 0.00000000E+00
  1 23629 0.00000000E+00
  1 23630 0.00000000E+00
  1 23631 0.00000000E+00
  1 23634 0.00000000E+00
  1 23635 0.00000000E+00
  1 23648 0.00000000E+00
  1 23650 0.00000000E+00
  1 23652 0.00000000E+00
  1 23653 0.00000000E+00
  1 23660 0.00000000E+00
  1 23745 0.00000000E+00
  1 23746 0.00000000E+00
  1 23795 0.00000000E+00
  1 23796 0.00000000E+00
  1 23797 0.00000000E+00
  1 23798 0.00000000E+00
  1 23806 0.00000000E+00
  1 23823 0.00000000E+00
  1 23824 0.00000000E+00
  1 23833 0.00000000E+00
  1 23834 0.00000000E+00
  1 23838 0.00000000E+00
  1 23840 0.00000000E+00
  1 23845 0.00000000E+00
  1 23849 0.00000000E+00
  1 23851 0.00000000E+00
  1 23854 0.00000000E+00
  1 23857 0.00000000E+00
  1 23861 0.00000000E+00
  1 23863 0.00000000E+00
  1 23866 0.00000000E+00
  1 23873 0.00000000E+00
  1 23877 0.00000000E+00
  1 23880 0.00000000E+00
  1 23883 0.00000000E+00
  1 23885 0.00000000E+00
  1 23888 0.00000000E+00
  1 23903 0.00000000E+00
  1 23904 0.00000000E+00
  1 23905 0.00000000E+00
  1 23909 0.00000000E+00
  1 23912 0.00000000E+00
  1 23914 0.00000000E+00
  1 23917 0.00000000E+00
  1 23921 0.00000000E+00
  1 23923 0.00000000E+00
  1 23926 0.00000000E+00
  1 23931 0.00000000E+00
  1 23934 0.00000000E+00
  1 23940 0.00000000E+00
  1 23942 0.00000000E+00
  1 23955 0.00000000E+00
  1 23956 0.00000000E+00
  1 23957 0.00000000E+00
  1 23958 0.00000000E+00
  1 23969 0.00000000E+00
  1 23970 0.00000000E+00
  1 23989 0.00000000E+00
  1 23992 0.00000000E+00
  1 23996 0.00000000E+00
  1 23999 0.00000000E+00
  1 24001 0.00000000E+00
  1 24005 0.00000000E+00
  1 24007 0.00000000E+00
  1 24011 0.00000000E+00
  1 24014 0.00000000E+00
  1 24016 0.00000000E+00
  1 24020 0.00000000E+00
  1 24023 0.00000000E+00
  1 24025 0.00000000E+00
  1 24029 0.00000000E+00
  1 24031 0.00000000E+00
  1 24032 0.00000000E+00
  1 24033 0.00000000E+00
  1 24034 0.00000000E+00
  1 24035 0.00000000E+00
  1 24036 0.00000000E+00
  1 24037 0.00000000E+00
  1 24038 0.00000000E+00
  1 24041 0.00000000E+00
  1 24042 0.00000000E+00
  1 24043 0.00000000E+00
  1 24044 0.00000000E+00
  1 24059 0.00000000E+00
  1 24060 0.00000000E+00
  1 24066 0.00000000E+00
  1 24069 0.00000000E+00
  1 24072 0.00000000E+00
  1 24075 0.00000000E+00
  1 24077 0.00000000E+00
  1 24080 0.00000000E+00
  1 24084 0.00000000E+00
  1 24087 0.00000000E+00
  1 24091 0.00000000E+00
  1 24095 0.00000000E+00
  1 24098 0.00000000E+00
  1 24100 0.00000000E+00
  1 24103 0.00000000E+00
  1 24107 0.00000000E+00
  1 24110 0.00000000E+00
  1 24112 0.00000000E+00
  1 24115 0.00000000E+00
  1 24118 0.00000000E+00
  1 24121 0.00000000E+00
  1 24124 0.00000000E+00
  1 24153 0.00000000E+00
  1 24155 0.00000000E+00
  1 24156 0.00000000E+00
  1 24171 0.00000000E+00
  1 24172 0.00000000E+00
  1 24175 0.00000000E+00
  1 24194 0.00000000E+00
  1 24200 0.00000000E+00
  1 24202 0.00000000E+00
  1 24232 0.00000000E+00
  1 24233 0.00000000E+00
  1 24234 0.00000000E+00
  1 24235 0.00000000E+00
  1 24236 0.00000000E+00
  1 24237 0.00000000E+00
  1 24238 0.00000000E+00
  1 24239 0.00000000E+00
  1 24243 0.00000000E+00
  1 24249 0.00000000E+00
  1 24250 0.00000000E+00
  1 24360 0.00000000E+00
  1 24386 0.00000000E+00
  1 24387 0.00000000E+00
  1 24388 0.00000000E+00
  1 24389 0.00000000E+00
  1 24392 0.00000000E+00
  1 24393 0.00000000E+00
  1 24397 0.00000000E+00
  1 24398 0.00000000E+00
  1 24399 0.00000000E+00
  1 24400 0.00000000E+00
  1 24401 0.00000000E+00
  1 24402 0.00000000E+00
  1 24403 0.00000000E+00
  1 24404 0.00000000E+00
  1 24405 0.00000000E+00
  1 24406 0.00000000E+00
  1 24407 0.00000000E+00
  1 24408 0.00000000E+00
  1 24409 0.00000000E+00
  1 24410 0.00000000E+00
  1 24411 0.00000000E+00
  1 24413 0.00000000E+00
  1 24414 0.00000000E+00
  1 24415 0.00000000E+00
  1 24416 0.00000000E+00
  1 24417 0.00000000E+00
  1 24418 0.00000000E+00
  1 24419 0.00000000E+00
  1 24420 0.00000000E+00
  1 24421 0.00000000E+00
  1 24422 0.00000000E+00