# File generated by Flopy version 3.9.1 on 02/09/2026 at 21:32:11.
BEGIN options
END options

BEGIN timing
  TDIS6  triangle_caseA.tdis
END timing

BEGIN models
  gwf6  triangle_caseA.nam  triangle_caseA
END models

BEGIN exchanges
END exchanges

BEGIN solutiongroup  1
  ims6  triangle_caseA.ims  triangle_caseA
END solutiongroup  1

