# File generated by Flopy version 3.9.1 on 02/09/2026 at 21:32:11.
BEGIN options
  SAVE_FLOWS
END options

BEGIN dimensions
  MAXBOUND  848
END dimensions

BEGIN period  1
  1 84 0.00000000E+00
  1 94 0.00000000E+00
  1 107 0.00000000E+00
  1 108 0.00000000E+00
  1 110 0.00000000E+00
  1 116 0.00000000E+00
  1 117 0.00000000E+00
  1 119 0.00000000E+00
  1 121 0.00000000E+00
  1 123 0.00000000E+00
  1 125 0.00000000E+00
  1 126 0.00000000E+00
  1 129 0.00000000E+00
  1 131 0.00000000E+00
  1 133 0.00000000E+00
  1 136 0.00000000E+00
  1 138 0.00000000E+00
  1 139 0.00000000E+00
  1 141 0.00000000E+00
  1 143 0.00000000E+00
  1 149 0.00000000E+00
  1 150 0.00000000E+00
  1 162 0.00000000E+00
  1 173 0.00000000E+00
  1 179 0.00000000E+00
  1 192 0.00000000E+00
  1 213 0.00000000E+00
  1 233 0.00000000E+00
  1 258 0.00000000E+00
  1 272 0.00000000E+00
  1 317 0.00000000E+00
  1 319 0.00000000E+00
  1 343 0.00000000E+00
  1 359 0.00000000E+00
  1 360 0.00000000E+00
  1 369 0.00000000E+00
  1 373 0.00000000E+00
  1 381 0.00000000E+00
  1 382 0.00000000E+00
  1 396 0.00000000E+00
  1 397 0.00000000E+00
  1 398 0.00000000E+00
  1 399 0.00000000E+00
  1 401 0.00000000E+00
  1 406 0.00000000E+00
  1 473 0.00000000E+00
  1 509 0.00000000E+00
  1 516 0.00000000E+00
  1 517 0.00000000E+00
  1 518 0.00000000E+00
  1 521 0.00000000E+00
  1 524 0.00000000E+00
  1 525 0.00000000E+00
  1 526 0.00000000E+00
  1 527 0.00000000E+00
  1 531 0.00000000E+00
  1 543 0.00000000E+00
  1 544 0.00000000E+00
  1 549 0.00000000E+00
  1 554 0.00000000E+00
  1 567 0.00000000E+00
  1 582 0.00000000E+00
  1 584 0.00000000E+00
  1 585 0.00000000E+00
  1 586 0.00000000E+00
  1 587 0.00000000E+00
  1 591 0.00000000E+00
  1 595 0.00000000E+00
  1 631 0.00000000E+00
  1 640 0.00000000E+00
  1 729 0.00000000E+00
  1 730 0.00000000E+00
  1 733 0.00000000E+00
  1 738 0.00000000E+00
  1 752 0.00000000E+00
  1 761 0.00000000E+00
  1 769 0.00000000E+00
  1 772 0.00000000E+00
  1 778 0.00000000E+00
  1 781 0.00000000E+00
  1 784 0.00000000E+00
  1 789 0.00000000E+00
  1 816 0.00000000E+00
  1 834 0.00000000E+00
  1 866 0.00000000E+00
  1 868 0.00000000E+00
  1 871 0.00000000E+00
  1 878 0.00000000E+00
  1 880 0.00000000E+00
  1 883 0.00000000E+00
  1 891 0.00000000E+00
  1 896 0.00000000E+00
  1 897 0.00000000E+00
  1 898 0.00000000E+00
  1 901 0.00000000E+00
  1 902 0.00000000E+00
  1 904 0.00000000E+00
  1 909 0.00000000E+00
  1 911 0.00000000E+00
  1 912 0.00000000E+00
  1 915 0.00000000E+00
  1 924 0.00000000E+00
  1 926 0.00000000E+00
  1 930 0.00000000E+00
  1 946 0.00000000E+00
  1 961 0.00000000E+00
  1 962 0.00000000E+00
  1 965 0.00000000E+00
  1 971 0.00000000E+00
  1 975 0.00000000E+00
  1 978 0.00000000E+00
  1 979 0.00000000E+00
  1 980 0.00000000E+00
  1 981 0.00000000E+00
  1 983 0.00000000E+00
  1 993 0.00000000E+00
  1 1035 0.00000000E+00
  1 1038 0.00000000E+00
  1 1039 0.00000000E+00
  1 1040 0.00000000E+00
  1 1043 0.00000000E+00
  1 1053 0.00000000E+00
  1 1055 0.00000000E+00
  1 1073 0.00000000E+00
  1 1093 0.00000000E+00
  1 1112 0.00000000E+00
  1 1126 0.00000000E+00
  1 1153 0.00000000E+00
  1 1156 0.00000000E+00
  1 1162 0.00000000E+00
  1 1171 0.00000000E+00
  1 1191 0.00000000E+00
  1 1204 0.00000000E+00
  1 1216 0.00000000E+00
  1 1229 0.00000000E+00
  1 1231 0.00000000E+00
  1 1237 0.00000000E+00
  1 1242 0.00000000E+00
  1 1249 0.00000000E+00
  1 1250 0.00000000E+00
  1 1253 0.00000000E+00
  1 1257 0.00000000E+00
  1 1259 0.00000000E+00
  1 1264 0.00000000E+00
  1 1265 0.00000000E+00
  1 1269 0.00000000E+00
  1 1277 0.00000000E+00
  1 1282 0.00000000E+00
  1 1287 0.00000000E+00
  1 1288 0.00000000E+00
  1 1292 0.00000000E+00
  1 1293 0.00000000E+00
  1 1294 0.00000000E+00
  1 1295 0.00000000E+00
  1 1299 0.00000000E+00
  1 1302 0.00000000E+00
  1 1303 0.00000000E+00
  1 1304 0.00000000E+00
  1 1306 0.00000000E+00
  1 1309 0.00000000E+00
  1 1310 0.00000000E+00
  1 1314 0.00000000E+00
  1 1315 0.00000000E+00
  1 1319 0.00000000E+00
  1 1324 0.00000000E+00
  1 1327 0.00000000E+00
  1 1328 0.00000000E+00
  1 1330 0.00000000E+00
  1 1331 0.00000000E+00
  1 1332 0.00000000E+00
  1 1333 0.00000000E+00
  1 1335 0.00000000E+00
  1 1354 0.00000000E+00
  1 1356 0.00000000E+00
  1 1359 0.00000000E+00
  1 1360 0.00000000E+00
  1 1361 0.00000000E+00
  1 1363 0.00000000E+00
  1 1365 0.00000000E+00
  1 1367 0.00000000E+00
  1 1373 0.00000000E+00
  1 1374 0.00000000E+00
  1 1375 0.00000000E+00
  1 1377 0.00000000E+00
  1 1378 0.00000000E+00
  1 1381 0.00000000E+00
  1 1382 0.00000000E+00
  1 1388 0.00000000E+00
  1 1391 0.00000000E+00
  1 1392 0.00000000E+00
  1 1393 0.00000000E+00
  1 1394 0.00000000E+00
  1 1395 0.00000000E+00
  1 1397 0.00000000E+00
  1 1398 0.00000000E+00
  1 1399 0.00000000E+00
  1 1400 0.00000000E+00
  1 1401 0.00000000E+00
  1 1402 0.00000000E+00
  1 1405 0.00000000E+00
  1 1409 0.00000000E+00
  1 1410 0.00000000E+00
  1 1412 0.00000000E+00
  1 1413 0.00000000E+00
  1 1414 0.00000000E+00
  1 1415 0.00000000E+00
  1 1416 0.00000000E+00
  1 1418 0.00000000E+00
  1 1419 0.00000000E+00
  1 1420 0.00000000E+00
  1 1426 0.00000000E+00
  1 1428 0.00000000E+00
  1 1429 0.00000000E+00
  1 1431 0.00000000E+00
  1 1432 0.00000000E+00
  1 1434 0.00000000E+00
  1 1437 0.00000000E+00
  1 1438 0.00000000E+00
  1 1439 0.00000000E+00
  1 1440 0.00000000E+00
  1 1441 0.00000000E+00
  1 1442 0.00000000E+00
  1 1447 0.00000000E+00
  1 1449 0.00000000E+00
  1 1451 0.00000000E+00
  1 1453 0.00000000E+00
  1 1454 0.00000000E+00
  1 1457 0.00000000E+00
  1 1458 0.00000000E+00
  1 1461 0.00000000E+00
  1 1463 0.00000000E+00
  1 1465 0.00000000E+00
  1 1467 0.00000000E+00
  1 1468 0.00000000E+00
  1 1469 0.00000000E+00
  1 1470 0.00000000E+00
  1 1473 0.00000000E+00
  1 1478 0.00000000E+00
  1 1482 0.00000000E+00
  1 1483 0.00000000E+00
  1 1484 0.00000000E+00
  1 1485 0.00000000E+00
  1 1486 0.00000000E+00
  1 1488 0.00000000E+00
  1 1489 0.00000000E+00
  1 1490 0.00000000E+00
  1 1491 0.00000000E+00
  1 1494 0.00000000E+00
  1 1495 0.00000000E+00
  1 1497 0.00000000E+00
  1 1498 0.00000000E+00
  1 1502 0.00000000E+00
  1 1503 0.00000000E+00
  1 1509 0.00000000E+00
  1 1511 0.00000000E+00
  1 1512 0.00000000E+00
  1 1513 0.00000000E+00
  1 1514 0.00000000E+00
  1 1515 0.00000000E+00
  1 1519 0.00000000E+00
  1 1520 0.00000000E+00
  1 1521 0.00000000E+00
  1 1522 0.00000000E+00
  1 1523 0.00000000E+00
  1 1524 0.00000000E+00
  1 1525 0.00000000E+00
  1 1526 0.00000000E+00
  1 1528 0.00000000E+00
  1 1530 0.00000000E+00
  1 1531 0.00000000E+00
  1 1532 0.00000000E+00
  1 1533 0.00000000E+00
  1 1534 0.00000000E+00
  1 1535 0.00000000E+00
  1 1536 0.00000000E+00
  1 1537 0.00000000E+00
  1 1539 0.00000000E+00
  1 1540 0.00000000E+00
  1 1541 0.00000000E+00
  1 1542 0.00000000E+00
  1 1543 0.00000000E+00
  1 1544 0.00000000E+00
  1 1547 0.00000000E+00
  1 1549 0.00000000E+00
  1 1551 0.00000000E+00
  1 1561 0.00000000E+00
  1 1562 0.00000000E+00
  1 1563 0.00000000E+00
  1 1564 0.00000000E+00
  1 1565 0.00000000E+00
  1 1566 0.00000000E+00
  1 1567 0.00000000E+00
  1 1572 0.00000000E+00
  1 1573 0.00000000E+00
  1 1579 0.00000000E+00
  1 1580 0.00000000E+00
  1 1581 0.00000000E+00
  1 1582 0.00000000E+00
  1 1583 0.00000000E+00
  1 1584 0.00000000E+00
  1 1585 0.00000000E+00
  1 1586 0.00000000E+00
  1 1587 0.00000000E+00
  1 1588 0.00000000E+00
  1 1600 0.00000000E+00
  1 1603 0.00000000E+00
  1 1610 0.00000000E+00
  1 1611 0.00000000E+00
  1 1612 0.00000000E+00
  1 1613 0.00000000E+00
  1 1614 0.00000000E+00
  1 1615 0.00000000E+00
  1 1616 0.00000000E+00
  1 1617 0.00000000E+00
  1 1619 0.00000000E+00
  1 1620 0.00000000E+00
  1 1621 0.00000000E+00
  1 1622 0.00000000E+00
  1 1623 0.00000000E+00
  1 1626 0.00000000E+00
  1 1628 0.00000000E+00
  1 1629 0.00000000E+00
  1 1630 0.00000000E+00
  1 1631 0.00000000E+00
  1 1634 0.00000000E+00
  1 1636 0.00000000E+00
  1 1640 0.00000000E+00
  1 1647 0.00000000E+00
  1 1648 0.00000000E+00
  1 1649 0.00000000E+00
  1 1651 0.00000000E+00
  1 1652 0.00000000E+00
  1 1658 0.00000000E+00
  1 1659 0.00000000E+00
  1 1660 0.00000000E+00
  1 1661 0.00000000E+00
  1 1662 0.00000000E+00
  1 1664 0.00000000E+00
  1 1665 0.00000000E+00
  1 1666 0.00000000E+00
  1 1667 0.00000000E+00
  1 1668 0.00000000E+00
  1 1677 0.00000000E+00
  1 1678 0.00000000E+00
  1 1680 0.00000000E+00
  1 1685 0.00000000E+00
  1 1686 0.00000000E+00
  1 1687 0.00000000E+00
  1 1688 0.00000000E+00
  1 1701 0.00000000E+00
  1 1703 0.00000000E+00
  1 1707 0.00000000E+00
  1 1708 0.00000000E+00
  1 1709 0.00000000E+00
  1 1710 0.00000000E+00
  1 1712 0.00000000E+00
  1 1714 0.00000000E+00
  1 1715 0.00000000E+00
  1 1717 0.00000000E+00
  1 1718 0.00000000E+00
  1 1719 0.00000000E+00
  1 1720 0.00000000E+00
  1 1721 0.00000000E+00
  1 1722 0.00000000E+00
  1 1729 0.00000000E+00
  1 1732 0.00000000E+00
  1 1734 0.00000000E+00
  1 1745 0.00000000E+00
  1 1747 0.00000000E+00
  1 1748 0.00000000E+00
  1 1749 0.00000000E+00
  1 1750 0.00000000E+00
  1 1753 0.00000000E+00
  1 1754 0.00000000E+00
  1 1755 0.00000000E+00
  1 1756 0.00000000E+00
  1 1759 0.00000000E+00
  1 1761 0.00000000E+00
  1 1762 0.00000000E+00
  1 1764 0.00000000E+00
  1 1766 0.00000000E+00
  1 1767 0.00000000E+00
  1 1768 0.00000000E+00
  1 1781 0.00000000E+00
  1 1782 0.00000000E+00
  1 1783 0.00000000E+00
  1 1787 0.00000000E+00
  1 1788 0.00000000E+00
  1 1793 0.00000000E+00
  1 1799 0.00000000E+00
  1 1805 0.00000000E+00
  1 1807 0.00000000E+00
  1 1824 0.00000000E+00
  1 1825 0.00000000E+00
  1 1834 0.00000000E+00
  1 1841 0.00000000E+00
  1 1842 0.00000000E+00
  1 1855 0.00000000E+00
  1 1856 0.00000000E+00
  1 1868 0.00000000E+00
  1 1873 0.00000000E+00
  1 1877 0.00000000E+00
  1 1879 0.00000000E+00
  1 1880 0.00000000E+00
  1 1886 0.00000000E+00
  1 1889 0.00000000E+00
  1 1897 0.00000000E+00
  1 1905 0.00000000E+00
  1 1906 0.00000000E+00
  1 1923 0.00000000E+00
  1 1936 0.00000000E+00
  1 1937 0.00000000E+00
  1 1940 0.00000000E+00
  1 1944 0.00000000E+00
  1 1946 0.00000000E+00
  1 1958 0.00000000E+00
  1 1981 0.00000000E+00
  1 1993 0.00000000E+00
  1 2046 0.00000000E+00
  1 2047 0.00000000E+00
  1 2223 0.00000000E+00
  1 4724 0.00000000E+00
  1 4734 0.00000000E+00
  1 4737 0.00000000E+00
  2 84 0.00000000E+00
  2 94 0.00000000E+00
  2 107 0.00000000E+00
  2 108 0.00000000E+00
  2 110 0.00000000E+00
  2 116 0.00000000E+00
  2 117 0.00000000E+00
  2 119 0.00000000E+00
  2 121 0.00000000E+00
  2 123 0.00000000E+00
  2 125 0.00000000E+00
  2 126 0.00000000E+00
  2 129 0.00000000E+00
  2 131 0.00000000E+00
  2 133 0.00000000E+00
  2 136 0.00000000E+00
  2 138 0.00000000E+00
  2 139 0.00000000E+00
  2 141 0.00000000E+00
  2 143 0.00000000E+00
  2 149 0.00000000E+00
  2 150 0.00000000E+00
  2 162 0.00000000E+00
  2 173 0.00000000E+00
  2 179 0.00000000E+00
  2 192 0.00000000E+00
  2 213 0.00000000E+00
  2 233 0.00000000E+00
  2 258 0.00000000E+00
  2 272 0.00000000E+00
  2 317 0.00000000E+00
  2 319 0.00000000E+00
  2 343 0.00000000E+00
  2 359 0.00000000E+00
  2 360 0.00000000E+00
  2 369 0.00000000E+00
  2 373 0.00000000E+00
  2 381 0.00000000E+00
  2 382 0.00000000E+00
  2 396 0.00000000E+00
  2 397 0.00000000E+00
  2 398 0.00000000E+00
  2 399 0.00000000E+00
  2 401 0.00000000E+00
  2 406 0.00000000E+00
  2 473 0.00000000E+00
  2 509 0.00000000E+00
  2 516 0.00000000E+00
  2 517 0.00000000E+00
  2 518 0.00000000E+00
  2 521 0.00000000E+00
  2 524 0.00000000E+00
  2 525 0.00000000E+00
  2 526 0.00000000E+00
  2 527 0.00000000E+00
  2 531 0.00000000E+00
  2 543 0.00000000E+00
  2 544 0.00000000E+00
  2 549 0.00000000E+00
  2 554 0.00000000E+00
  2 567 0.00000000E+00
  2 582 0.00000000E+00
  2 584 0.00000000E+00
  2 585 0.00000000E+00
  2 586 0.00000000E+00
  2 587 0.00000000E+00
  2 591 0.00000000E+00
  2 595 0.00000000E+00
  2 631 0.00000000E+00
  2 640 0.00000000E+00
  2 729 0.00000000E+00
  2 730 0.00000000E+00
  2 733 0.00000000E+00
  2 738 0.00000000E+00
  2 752 0.00000000E+00
  2 761 0.00000000E+00
  2 769 0.00000000E+00
  2 772 0.00000000E+00
  2 778 0.00000000E+00
  2 781 0.00000000E+00
  2 784 0.00000000E+00
  2 789 0.00000000E+00
  2 816 0.00000000E+00
  2 834 0.00000000E+00
  2 866 0.00000000E+00
  2 868 0.00000000E+00
  2 871 0.00000000E+00
  2 878 0.00000000E+00
  2 880 0.00000000E+00
  2 883 0.00000000E+00
  2 891 0.00000000E+00
  2 896 0.00000000E+00
  2 897 0.00000000E+00
  2 898 0.00000000E+00
  2 901 0.00000000E+00
  2 902 0.00000000E+00
  2 904 0.00000000E+00
  2 909 0.00000000E+00
  2 911 0.00000000E+00
  2 912 0.00000000E+00
  2 915 0.00000000E+00
  2 924 0.00000000E+00
  2 926 0.00000000E+00
  2 930 0.00000000E+00
  2 946 0.00000000E+00
  2 961 0.00000000E+00
  2 962 0.00000000E+00
  2 965 0.00000000E+00
  2 971 0.00000000E+00
  2 975 0.00000000E+00
  2 978 0.00000000E+00
  2 979 0.00000000E+00
  2 980 0.00000000E+00
  2 981 0.00000000E+00
  2 983 0.00000000E+00
  2 993 0.00000000E+00
  2 1035 0.00000000E+00
  2 1038 0.00000000E+00
  2 1039 0.00000000E+00
  2 1040 0.00000000E+00
  2 1043 0.00000000E+00
  2 1053 0.00000000E+00
  2 1055 0.00000000E+00
  2 1073 0.00000000E+00
  2 1093 0.00000000E+00
  2 1112 0.00000000E+00
  2 1126 0.00000000E+00
  2 1153 0.00000000E+00
  2 1156 0.00000000E+00
  2 1162 0.00000000E+00
  2 1171 0.00000000E+00
  2 1191 0.00000000E+00
  2 1204 0.00000000E+00
  2 1216 0.00000000E+00
  2 1229 0.00000000E+00
  2 1231 0.00000000E+00
  2 1237 0.00000000E+00
  2 1242 0.00000000E+00
  2 1249 0.00000000E+00
  2 1250 0.00000000E+00
  2 1253 0.00000000E+00
  2 1257 0.00000000E+00
  2 1259 0.00000000E+00
  2 1264 0.00000000E+00
  2 1265 0.00000000E+00
  2 1269 0.00000000E+00
  2 1277 0.00000000E+00
  2 1282 0.00000000E+00
  2 1287 0.00000000E+00
  2 1288 0.00000000E+00
  2 1292 0.00000000E+00
  2 1293 0.00000000E+00
  2 1294 0.00000000E+00
  2 1295 0.00000000E+00
  2 1299 0.00000000E+00
  2 1302 0.00000000E+00
  2 1303 0.00000000E+00
  2 1304 0.00000000E+00
  2 1306 0.00000000E+00
  2 1309 0.00000000E+00
  2 1310 0.00000000E+00
  2 1314 0.00000000E+00
  2 1315 0.00000000E+00
  2 1319 0.00000000E+00
  2 1324 0.00000000E+00
  2 1327 0.00000000E+00
  2 1328 0.00000000E+00
  2 1330 0.00000000E+00
  2 1331 0.00000000E+00
  2 1332 0.00000000E+00
  2 1333 0.00000000E+00
  2 1335 0.00000000E+00
  2 1354 0.00000000E+00
  2 1356 0.00000000E+00
  2 1359 0.00000000E+00
  2 1360 0.00000000E+00
  2 1361 0.00000000E+00
  2 1363 0.00000000E+00
  2 1365 0.00000000E+00
  2 1367 0.00000000E+00
  2 1373 0.00000000E+00
  2 1374 0.00000000E+00
  2 1375 0.00000000E+00
  2 1377 0.00000000E+00
  2 1378 0.00000000E+00
  2 1381 0.00000000E+00
  2 1382 0.00000000E+00
  2 1388 0.00000000E+00
  2 1391 0.00000000E+00
  2 1392 0.00000000E+00
  2 1393 0.00000000E+00
  2 1394 0.00000000E+00
  2 1395 0.00000000E+00
  2 1397 0.00000000E+00
  2 1398 0.00000000E+00
  2 1399 0.00000000E+00
  2 1400 0.00000000E+00
  2 1401 0.00000000E+00
  2 1402 0.00000000E+00
  2 1405 0.00000000E+00
  2 1409 0.00000000E+00
  2 1410 0.00000000E+00
  2 1412 0.00000000E+00
  2 1413 0.00000000E+00
  2 1414 0.00000000E+00
  2 1415 0.00000000E+00
  2 1416 0.00000000E+00
  2 1418 0.00000000E+00
  2 1419 0.00000000E+00
  2 1420 0.00000000E+00
  2 1426 0.00000000E+00
  2 1428 0.00000000E+00
  2 1429 0.00000000E+00
  2 1431 0.00000000E+00
  2 1432 0.00000000E+00
  2 1434 0.00000000E+00
  2 1437 0.00000000E+00
  2 1438 0.00000000E+00
  2 1439 0.00000000E+00
  2 1440 0.00000000E+00
  2 1441 0.00000000E+00
  2 1442 0.00000000E+00
  2 1447 0.00000000E+00
  2 1449 0.00000000E+00
  2 1451 0.00000000E+00
  2 1453 0.00000000E+00
  2 1454 0.00000000E+00
  2 1457 0.00000000E+00
  2 1458 0.00000000E+00
  2 1461 0.00000000E+00
  2 1463 0.00000000E+00
  2 1465 0.00000000E+00
  2 1467 0.00000000E+00
  2 1468 0.00000000E+00
  2 1469 0.00000000E+00
  2 1470 0.00000000E+00
  2 1473 0.00000000E+00
  2 1478 0.00000000E+00
  2 1482 0.00000000E+00
  2 1483 0.00000000E+00
  2 1484 0.00000000E+00
  2 1485 0.00000000E+00
  2 1486 0.00000000E+00
  2 1488 0.00000000E+00
  2 1489 0.00000000E+00
  2 1490 0.00000000E+00
  2 1491 0.00000000E+00
  2 1494 0.00000000E+00
  2 1495 0.00000000E+00
  2 1497 0.00000000E+00
  2 1498 0.00000000E+00
  2 1502 0.00000000E+00
  2 1503 0.00000000E+00
  2 1509 0.00000000E+00
  2 1511 0.00000000E+00
  2 1512 0.00000000E+00
  2 1513 0.00000000E+00
  2 1514 0.00000000E+00
  2 1515 0.00000000E+00
  2 1519 0.00000000E+00
  2 1520 0.00000000E+00
  2 1521 0.00000000E+00
  2 1522 0.00000000E+00
  2 1523 0.00000000E+00
  2 1524 0.00000000E+00
  2 1525 0.00000000E+00
  2 1526 0.00000000E+00
  2 1528 0.00000000E+00
  2 1530 0.00000000E+00
  2 1531 0.00000000E+00
  2 1532 0.00000000E+00
  2 1533 0.00000000E+00
  2 1534 0.00000000E+00
  2 1535 0.00000000E+00
  2 1536 0.00000000E+00
  2 1537 0.00000000E+00
  2 1539 0.00000000E+00
  2 1540 0.00000000E+00
  2 1541 0.00000000E+00
  2 1542 0.00000000E+00
  2 1543 0.00000000E+00
  2 1544 0.00000000E+00
  2 1547 0.00000000E+00
  2 1549 0.00000000E+00
  2 1551 0.00000000E+00
  2 1561 0.00000000E+00
  2 1562 0.00000000E+00
  2 1563 0.00000000E+00
  2 1564 0.00000000E+00
  2 1565 0.00000000E+00
  2 1566 0.00000000E+00
  2 1567 0.00000000E+00
  2 1572 0.00000000E+00
  2 1573 0.00000000E+00
  2 1579 0.00000000E+00
  2 1580 0.00000000E+00
  2 1581 0.00000000E+00
  2 1582 0.00000000E+00
  2 1583 0.00000000E+00
  2 1584 0.00000000E+00
  2 1585 0.00000000E+00
  2 1586 0.00000000E+00
  2 1587 0.00000000E+00
  2 1588 0.00000000E+00
  2 1600 0.00000000E+00
  2 1603 0.00000000E+00
  2 1610 0.00000000E+00
  2 1611 0.00000000E+00
  2 1612 0.00000000E+00
  2 1613 0.00000000E+00
  2 1614 0.00000000E+00
  2 1615 0.00000000E+00
  2 1616 0.00000000E+00
  2 1617 0.00000000E+00
  2 1619 0.00000000E+00
  2 1620 0.00000000E+00
  2 1621 0.00000000E+00
  2 1622 0.00000000E+00
  2 1623 0.00000000E+00
  2 1626 0.00000000E+00
  2 1628 0.00000000E+00
  2 1629 0.00000000E+00
  2 1630 0.00000000E+00
  2 1631 0.00000000E+00
  2 1634 0.00000000E+00
  2 1636 0.00000000E+00
  2 1640 0.00000000E+00
  2 1647 0.00000000E+00
  2 1648 0.00000000E+00
  2 1649 0.00000000E+00
  2 1651 0.00000000E+00
  2 1652 0.00000000E+00
  2 1658 0.00000000E+00
  2 1659 0.00000000E+00
  2 1660 0.00000000E+00
  2 1661 0.00000000E+00
  2 1662 0.00000000E+00
  2 1664 0.00000000E+00
  2 1665 0.00000000E+00
  2 1666 0.00000000E+00
  2 1667 0.00000000E+00
  2 1668 0.00000000E+00
  2 1677 0.00000000E+00
  2 1678 0.00000000E+00
  2 1680 0.00000000E+00
  2 1685 0.00000000E+00
  2 1686 0.00000000E+00
  2 1687 0.00000000E+00
  2 1688 0.00000000E+00
  2 1701 0.00000000E+00
  2 1703 0.00000000E+00
  2 1707 0.00000000E+00
  2 1708 0.00000000E+00
  2 1709 0.00000000E+00
  2 1710 0.00000000E+00
  2 1712 0.00000000E+00
  2 1714 0.00000000E+00
  2 1715 0.00000000E+00
  2 1717 0.00000000E+00
  2 1718 0.00000000E+00
  2 1719 0.00000000E+00
  2 1720 0.00000000E+00
  2 1721 0.00000000E+00
  2 1722 0.00000000E+00
  2 1729 0.00000000E+00
  2 1732 0.00000000E+00
  2 1734 0.00000000E+00
  2 1745 0.00000000E+00
  2 1747 0.00000000E+00
  2 1748 0.00000000E+00
  2 1749 0.00000000E+00
  2 1750 0.00000000E+00
  2 1753 0.00000000E+00
  2 1754 0.00000000E+00
  2 1755 0.00000000E+00
  2 1756 0.00000000E+00
  2 1759 0.00000000E+00
  2 1761 0.00000000E+00
  2 1762 0.00000000E+00
  2 1764 0.00000000E+00
  2 1766 0.00000000E+00
  2 1767 0.00000000E+00
  2 1768 0.00000000E+00
  2 1781 0.00000000E+00
  2 1782 0.00000000E+00
  2 1783 0.00000000E+00
  2 1787 0.00000000E+00
  2 1788 0.00000000E+00
  2 1793 0.00000000E+00
  2 1799 0.00000000E+00
  2 1805 0.00000000E+00
  2 1807 0.00000000E+00
  2 1824 0.00000000E+00
  2 1825 0.00000000E+00
  2 1834 0.00000000E+00
  2 1841 0.00000000E+00
  2 1842 0.00000000E+00
  2 1855 0.00000000E+00
  2 1856 0.00000000E+00
  2 1868 0.00000000E+00
  2 1873 0.00000000E+00
  2 1877 0.00000000E+00
  2 1879 0.00000000E+00
  2 1880 0.00000000E+00
  2 1886 0.00000000E+00
  2 1889 0.00000000E+00
  2 1897 0.00000000E+00
  2 1905 0.00000000E+00
  2 1906 0.00000000E+00
  2 1923 0.00000000E+00
  2 1936 0.00000000E+00
  2 1937 0.00000000E+00
  2 1940 0.00000000E+00
  2 1944 0.00000000E+00
  2 1946 0.00000000E+00
  2 1958 0.00000000E+00
  2 1981 0.00000000E+00
  2 1993 0.00000000E+00
  2 2046 0.00000000E+00
  2 2047 0.00000000E+00
  2 2223 0.00000000E+00
  2 4724 0.00000000E+00
  2 4734 0.00000000E+00
  2 4737 0.00000000E+00
END period  1

