# File generated by Flopy version 3.9.1 on 02/09/2026 at 21:32:11.
BEGIN options
  SAVE_FLOWS
END options

BEGIN dimensions
  MAXBOUND  6818
END dimensions

BEGIN period  1
  2 241 -0.00000000E+00
  2 242 -0.00000000E+00
  2 243 -0.00000000E+00
  2 251 -0.00000000E+00
  2 1743 -1.16034471E-02
  2 1775 -0.00000000E+00
  2 1806 -0.00000000E+00
  2 1838 -0.00000000E+00
  2 1909 -0.00000000E+00
  2 1996 -0.00000000E+00
  2 2069 -0.00000000E+00
  2 2084 -0.00000000E+00
  2 2127 -0.00000000E+00
  2 2128 -0.00000000E+00
  2 2196 -2.32068943E-03
  2 2199 -1.62448260E-02
  2 2200 -0.00000000E+00
  2 2231 -0.00000000E+00
  2 2248 -0.00000000E+00
  2 2249 -6.96206829E-03
  2 2304 -0.00000000E+00
  2 2325 -0.00000000E+00
  2 2372 -2.32068943E-03
  2 2405 -0.00000000E+00
  2 2406 -0.00000000E+00
  2 2418 -0.00000000E+00
  2 2494 -0.00000000E+00
  2 2497 -0.00000000E+00
  2 2522 -0.00000000E+00
  2 2550 -0.00000000E+00
  2 2551 -0.00000000E+00
  2 2552 -0.00000000E+00
  2 2553 -5.33758569E-02
  2 2554 -0.00000000E+00
  2 2602 -2.32068943E-03
  2 2603 -0.00000000E+00
  2 2604 -0.00000000E+00
  2 2605 -2.32068943E-03
  2 2606 -1.71731018E-01
  2 2607 -0.00000000E+00
  2 2608 -0.00000000E+00
  2 2609 -0.00000000E+00
  2 2610 -0.00000000E+00
  2 2618 -0.00000000E+00
  2 2633 -2.55275837E-02
  2 2634 -4.64137886E-03
  2 2635 -0.00000000E+00
  2 2638 -4.64137886E-03
  2 2639 -1.16034471E-02
  2 2640 -4.17724097E-02
  2 2641 -0.00000000E+00
  2 2642 -0.00000000E+00
  2 2643 -2.32068943E-03
  2 2644 -0.00000000E+00
  2 2645 -9.28275772E-03
  2 2646 -0.00000000E+00
  2 2647 -2.32068943E-03
  2 2648 -0.00000000E+00
  2 2649 -2.32068943E-03
  2 2650 -0.00000000E+00
  2 2651 -9.28275772E-03
  2 2652 -1.16034471E-02
  2 2653 -0.00000000E+00
  2 2657 -0.00000000E+00
  2 2658 -1.43882745E-01
  2 2661 -2.55275837E-02
  2 2662 -0.00000000E+00
  2 2663 -1.85655154E-02
  2 2664 -0.00000000E+00
  2 2666 -0.00000000E+00
  2 2667 -0.00000000E+00
  2 2683 -0.00000000E+00
  2 2686 -4.64137886E-03
  2 2688 -0.00000000E+00
  2 2692 -6.96206829E-03
  2 2699 -1.39241366E-02
  2 2707 -2.32068943E-03
  2 2708 -0.00000000E+00
  2 2713 -0.00000000E+00
  2 2714 -6.96206829E-03
  2 2715 -1.16034471E-02
  2 2716 -0.00000000E+00
  2 3088 -0.00000000E+00
  2 3208 -0.00000000E+00
  2 3209 -6.03379251E-02
  2 3210 -1.62448260E-02
  2 3211 -2.32068943E-03
  2 3213 -4.64137886E-03
  2 3216 -2.32068943E-03
  2 3678 -0.00000000E+00
  2 3681 -0.00000000E+00
  2 3683 -0.00000000E+00
  2 3697 -1.64304812E+00
  2 3709 -0.00000000E+00
  2 3710 -1.22996540E-01
  2 3711 -6.03379251E-02
  2 3724 -4.57175817E-01
  2 3727 -0.00000000E+00
  2 3730 -1.62448260E-02
  2 3740 -3.01689626E-02
  2 4108 -0.00000000E+00
  2 2953 -0.00000000E+00
  2 2968 -5.32338007E-03
  2 3093 -5.32338007E-03
  2 3129 -3.46019705E-01
  2 3237 -3.54892005E-03
  2 3247 -0.00000000E+00
  2 3252 -3.54892005E-03
  2 3253 -0.00000000E+00
  2 3256 -9.22719213E-02
  2 3258 -7.09784010E-03
  2 3259 -7.09784010E-03
  2 3260 -3.54892005E-03
  2 3263 -7.09784010E-03
  2 3267 -1.77446002E-03
  2 3268 -8.87230012E-03
  2 3269 -0.00000000E+00
  2 3274 -1.77446002E-03
  2 3275 -1.06467601E-02
  2 3299 -1.77446002E-02
  2 3477 -0.00000000E+00
  2 3481 -3.54892005E-03
  2 3482 -3.54892005E-03
  2 3483 -0.00000000E+00
  2 3520 -0.00000000E+00
  2 3521 -2.12935203E-02
  2 3525 -0.00000000E+00
  2 3994 -0.00000000E+00
  2 4000 -0.00000000E+00
  2 4001 -0.00000000E+00
  2 4002 -0.00000000E+00
  2 4005 -0.00000000E+00
  2 4006 -1.77446002E-03
  2 4007 -0.00000000E+00
  2 4008 -3.54892005E-03
  2 4748 -0.00000000E+00
  2 2624 -0.00000000E+00
  2 2689 -2.12118728E-03
  2 2696 -8.48474914E-03
  2 2717 -6.36356185E-03
  2 2880 -2.12118728E-03
  2 2885 -4.24237457E-03
  2 2917 -2.75754347E-02
  2 2925 -1.06059364E-02
  2 2994 -1.06059364E-02
  2 3006 -6.36356185E-03
  2 3019 -1.48483110E-02
  2 3058 -6.36356185E-03
  2 3070 -0.00000000E+00
  2 3074 -8.48474914E-03
  2 3075 -6.36356185E-03
  2 3080 -1.69694983E-02
  2 3083 -8.48474914E-03
  2 3084 -1.06059364E-02
  2 3099 -1.48483110E-02
  2 3102 -1.48483110E-02
  2 3117 -6.36356185E-03
  2 3119 -1.27271237E-02
  2 3120 -1.06059364E-02
  2 3123 -1.27271237E-02
  2 3124 -8.48474914E-03
  2 3857 -6.36356185E-03
  2 3858 -4.24237457E-03
  2 3863 -2.12118728E-03
  2 4192 -0.00000000E+00
  2 4196 -8.48474914E-03
  2 2845 -3.16951513E-05
  2 4133 -6.33903025E-05
  2 4142 -2.69408786E-04
  2 4157 -0.00000000E+00
  2 4158 -6.33903025E-05
  2 4159 -5.05537663E-03
  2 4160 -1.68459729E-02
  2 4451 -3.96189391E-04
  2 4461 -3.16951513E-05
  2 4478 -1.80662362E-02
  2 4480 -6.33903025E-05
  2 4485 -0.00000000E+00
  2 4487 -3.48646664E-04
  2 4488 -0.00000000E+00
  2 4203 -0.00000000E+00
  2 4259 -3.40204834E-03
  2 4269 -2.49483545E-02
  2 4364 -7.93811280E-03
  2 4365 -0.00000000E+00
  2 4367 -2.60823706E-02
  2 4371 -0.00000000E+00
  2 4373 -2.83504029E-02
  2 4375 -1.72370449E-01
  2 4377 -4.53606446E-03
  2 4378 -1.70102417E-02
  2 4379 -1.02061450E-02
  2 4408 -7.93811280E-02
  2 4422 -3.06184351E-02
  2 4423 -3.40204834E-03
  2 4428 -0.00000000E+00
  2 4434 -0.00000000E+00
  2 4435 -1.70102417E-02
  2 4436 -2.26803223E-03
  2 4438 -4.53606446E-03
  2 4444 -7.93811280E-03
  2 4446 -3.40204834E-03
  2 4448 -0.00000000E+00
  2 4450 -7.93811280E-03
  2 4567 -0.00000000E+00
  2 4569 -0.00000000E+00
  2 4570 -1.36081934E-02
  2 4571 -0.00000000E+00
  2 4572 -0.00000000E+00
  2 4573 -0.00000000E+00
  2 4574 -1.13401611E-03
  2 4576 -5.67008057E-03
  2 4700 -0.00000000E+00
  2 7 -1.16265239E-03
  2 17 -1.16265239E-03
  2 39 -1.16265239E-03
  2 43 -1.16265239E-03
  2 54 -1.16265239E-03
  2 60 -1.16265239E-03
  2 99 -1.72244799E-04
  2 119 -0.00000000E+00
  2 145 -1.16265239E-03
  2 162 -0.00000000E+00
  2 186 -0.00000000E+00
  2 193 -0.00000000E+00
  2 203 -0.00000000E+00
  2 207 -1.16265239E-03
  2 213 -1.21432583E-02
  2 214 -1.16265239E-03
  2 216 -1.16265239E-03
  2 221 -1.16265239E-03
  2 224 -1.16265239E-03
  2 225 -1.16265239E-03
  2 230 -1.16265239E-03
  2 231 -1.16265239E-03
  2 237 -1.16265239E-03
  2 239 -1.16265239E-03
  2 258 -4.95203797E-03
  2 264 -1.16265239E-03
  2 278 -1.16265239E-03
  2 281 -1.16265239E-03
  2 283 -1.16265239E-03
  2 287 -1.16265239E-03
  2 290 -1.16265239E-03
  2 291 -1.72244799E-04
  2 294 -1.16265239E-03
  2 302 -1.16265239E-03
  2 322 -1.16265239E-03
  2 324 -1.16265239E-03
  2 325 -1.16265239E-03
  2 326 -1.16265239E-03
  2 337 -1.16265239E-03
  2 339 -1.16265239E-03
  2 342 -1.16265239E-03
  2 347 -1.16265239E-03
  2 354 -1.16265239E-03
  2 379 -1.16265239E-03
  2 397 -1.72244799E-04
  2 407 -1.16265239E-03
  2 414 -1.16265239E-03
  2 435 -1.16265239E-03
  2 460 -1.16265239E-03
  2 466 -1.16265239E-03
  2 520 -1.16265239E-03
  2 533 -1.16265239E-03
  2 534 -1.16265239E-03
  2 548 -1.16265239E-03
  2 559 -1.16265239E-03
  2 560 -1.16265239E-03
  2 564 -1.16265239E-03
  2 568 -1.16265239E-03
  2 573 -1.16265239E-03
  2 577 -1.16265239E-03
  2 580 -1.16265239E-03
  2 581 -1.16265239E-03
  2 597 -1.16265239E-03
  2 601 -1.16265239E-03
  2 632 -1.16265239E-03
  2 642 -1.16265239E-03
  2 643 -1.16265239E-03
  2 650 -1.16265239E-03
  2 651 -1.16265239E-03
  2 655 -1.16265239E-03
  2 671 -1.16265239E-03
  2 673 -1.16265239E-03
  2 675 -1.16265239E-03
  2 677 -1.16265239E-03
  2 688 -1.16265239E-03
  2 689 -1.16265239E-03
  2 691 -1.16265239E-03
  2 754 -1.16265239E-03
  2 766 -1.16265239E-03
  2 777 -0.00000000E+00
  2 794 -1.16265239E-03
  2 800 -1.16265239E-03
  2 801 -1.16265239E-03
  2 805 -1.16265239E-03
  2 829 -1.16265239E-03
  2 835 -1.16265239E-03
  2 839 -1.16265239E-03
  2 848 -1.16265239E-03
  2 851 -0.00000000E+00
  2 855 -1.16265239E-03
  2 865 -4.73673197E-04
  2 869 -1.16265239E-03
  2 871 -0.00000000E+00
  2 877 -1.16265239E-03
  2 881 -1.16265239E-03
  2 885 -1.16265239E-03
  2 890 -1.16265239E-03
  2 899 -1.16265239E-03
  2 903 -1.16265239E-03
  2 905 -1.16265239E-03
  2 913 -1.16265239E-03
  2 914 -1.16265239E-03
  2 925 -1.72244799E-04
  2 937 -1.16265239E-03
  2 946 -0.00000000E+00
  2 954 -1.16265239E-03
  2 957 -0.00000000E+00
  2 963 -1.16265239E-03
  2 967 -1.16265239E-03
  2 969 -1.16265239E-03
  2 974 -1.16265239E-03
  2 976 -1.16265239E-03
  2 1041 -1.16265239E-03
  2 1042 -1.16265239E-03
  2 1045 -1.16265239E-03
  2 1054 -1.16265239E-03
  2 1057 -1.16265239E-03
  2 1060 -1.16265239E-03
  2 1151 -0.00000000E+00
  2 1159 -1.16265239E-03
  2 1171 -0.00000000E+00
  2 1191 -1.72244799E-04
  2 1215 -1.16265239E-03
  2 1217 -1.16265239E-03
  2 1218 -1.16265239E-03
  2 1220 -1.16265239E-03
  2 1222 -0.00000000E+00
  2 1224 -0.00000000E+00
  2 1227 -0.00000000E+00
  2 1229 -0.00000000E+00
  2 1230 -0.00000000E+00
  2 1231 -0.00000000E+00
  2 1233 -1.16265239E-03
  2 1234 -1.16265239E-03
  2 1235 -1.16265239E-03
  2 1236 -1.16265239E-03
  2 1238 -1.16265239E-03
  2 1239 -1.16265239E-03
  2 1241 -1.16265239E-03
  2 1242 -0.00000000E+00
  2 1243 -1.16265239E-03
  2 1244 -1.16265239E-03
  2 1248 -1.16265239E-03
  2 1249 -0.00000000E+00
  2 1252 -0.00000000E+00
  2 1253 -0.00000000E+00
  2 1254 -0.00000000E+00
  2 1255 -0.00000000E+00
  2 1257 -0.00000000E+00
  2 1259 -0.00000000E+00
  2 1260 -1.16265239E-03
  2 1264 -0.00000000E+00
  2 1268 -0.00000000E+00
  2 1269 -0.00000000E+00
  2 1272 -0.00000000E+00
  2 1273 -1.16265239E-03
  2 1277 -0.00000000E+00
  2 1292 -0.00000000E+00
  2 1293 -0.00000000E+00
  2 1294 -1.72244799E-04
  2 1295 -0.00000000E+00
  2 1330 -0.00000000E+00
  2 1335 -0.00000000E+00
  2 1418 -0.00000000E+00
  2 1419 -0.00000000E+00
  2 1437 -0.00000000E+00
  2 1438 -0.00000000E+00
  2 1611 -4.95203797E-03
  2 1612 -0.00000000E+00
  2 1614 -0.00000000E+00
  2 1619 -0.00000000E+00
  2 1620 -0.00000000E+00
  2 1669 -2.15305999E-04
  2 1707 -0.00000000E+00
  2 1728 -0.00000000E+00
  2 1729 -0.00000000E+00
  2 1750 -0.00000000E+00
  2 1756 -0.00000000E+00
  2 1841 -0.00000000E+00
  2 1842 -0.00000000E+00
  2 1879 -0.00000000E+00
  2 1880 -0.00000000E+00
  2 1897 -0.00000000E+00
  2 1898 -1.63632559E-03
  2 1923 -0.00000000E+00
  2 1926 -6.02856796E-04
  2 1927 -1.50714199E-03
  2 1958 -0.00000000E+00
  2 1981 -0.00000000E+00
  2 2013 -1.03346879E-03
  2 2014 -1.72244799E-04
  2 2045 -4.73673197E-04
  2 2046 -0.00000000E+00
  2 2047 -0.00000000E+00
  2 2048 -1.11959119E-03
  2 2096 -0.00000000E+00
  2 2106 -3.87550797E-04
  2 2137 -4.73673197E-04
  2 2161 -5.16734397E-04
  2 2176 -6.45917996E-04
  2 2177 -3.01428398E-04
  2 2178 -4.30611997E-04
  2 2185 -5.16734397E-04
  2 2254 -5.59795596E-04
  2 2256 -2.58367198E-04
  2 2257 -3.87550797E-04
  2 2282 -3.87550797E-04
  2 2283 -4.30611997E-04
  2 2333 -2.54061078E-03
  2 2334 -5.16734397E-04
  2 2577 -6.45917996E-04
  2 2822 -0.00000000E+00
  2 2823 -1.72244799E-04
  2 2149 -1.64520151E-02
  2 2170 -0.00000000E+00
  2 2300 -1.95857322E-02
  2 3157 -1.56685858E-03
  2 3808 -3.13371716E-03
  2 3812 -1.09680101E-02
  2 3813 -2.35028787E-03
  2 3817 -0.00000000E+00
  2 3821 -7.83429290E-04
  2 3823 -0.00000000E+00
  2 3839 -6.26743432E-03
  2 3840 -0.00000000E+00
  2 3841 -4.85726160E-02
  2 3842 -0.00000000E+00
  2 3879 -2.35028787E-03
  2 3885 -0.00000000E+00
  2 3889 -0.00000000E+00
  2 3891 -1.56685858E-03
  2 3892 -0.00000000E+00
  2 3893 -1.56685858E-03
  2 3894 -1.56685858E-03
  2 3897 -2.35028787E-03
  2 3905 -0.00000000E+00
  2 3906 -0.00000000E+00
  2 3908 -1.56685858E-03
  2 4204 -0.00000000E+00
  2 4205 -1.56685858E-03
  2 4209 -7.83429290E-04
  2 4214 -0.00000000E+00
  2 4217 -0.00000000E+00
  2 4397 -3.91714645E-03
  2 2580 -9.27809688E-04
  2 2630 -1.54634948E-03
  2 2690 -9.27809688E-04
  2 2859 -9.27809688E-04
  2 2862 -6.49466781E-03
  2 2876 -3.71123875E-03
  2 2882 -5.25758823E-03
  2 2883 -9.27809688E-04
  2 2886 -0.00000000E+00
  2 2887 -0.00000000E+00
  2 2888 -9.27809688E-04
  2 2889 -2.16488927E-03
  2 2890 -1.85561938E-03
  2 2891 -5.87612802E-03
  2 2893 -6.18539792E-04
  2 2894 -3.09269896E-04
  2 2901 -3.09269896E-03
  2 2902 -3.71123875E-03
  2 2904 -1.85561938E-03
  2 2905 -1.23707958E-03
  2 2906 -3.40196886E-03
  2 2913 -6.18539792E-04
  2 2914 -3.09269896E-04
  2 2918 -3.71123875E-03
  2 2920 -9.27809688E-04
  2 2921 -1.23707958E-03
  2 2922 -9.27809688E-04
  2 2923 -1.54634948E-03
  2 2924 -6.18539792E-04
  2 3020 -3.40196886E-03
  2 3022 -6.18539792E-04
  2 3038 -2.16488927E-03
  2 3058 -9.27809688E-04
  2 3101 -1.23707958E-03
  2 3102 -2.16488927E-03
  2 3676 -9.27809688E-04
  2 2404 -5.27635469E-03
  2 2954 -0.00000000E+00
  2 3057 -1.58290641E-03
  2 3072 -1.58290641E-03
  2 3073 -1.05527094E-03
  2 3076 -2.11054188E-03
  2 3077 -1.26632513E-02
  2 3078 -1.05527094E-03
  2 3081 -2.63817735E-03
  2 3085 -3.69344829E-03
  2 3086 -3.16581282E-03
  2 3087 -1.57235370E-01
  2 3088 -0.00000000E+00
  2 3098 -1.05527094E-03
  2 3712 -1.84672414E-02
  2 3718 -0.00000000E+00
  2 3722 -2.11054188E-03
  2 3723 -3.69344829E-03
  2 3725 -3.69344829E-03
  2 3726 -1.47737931E-02
  2 3727 -0.00000000E+00
  2 3728 -2.11054188E-03
  2 3731 -1.58290641E-03
  2 3732 -5.27635469E-04
  2 3735 -7.91453204E-03
  2 3743 -8.96980298E-03
  2 3744 -3.16581282E-03
  2 3745 -4.22108376E-03
  2 3748 -2.11054188E-03
  2 3763 -4.22108376E-03
  2 4193 -2.11054188E-03
  2 4194 -2.63817735E-03
  2 4195 -3.16581282E-03
  2 3066 -1.92647956E-03
  2 3157 -1.92647956E-03
  2 3161 -2.88971934E-03
  2 3300 -0.00000000E+00
  2 3702 -0.00000000E+00
  2 3819 -2.88971934E-03
  2 3821 -9.63239781E-04
  2 3829 -4.43090299E-02
  2 3830 -0.00000000E+00
  2 3840 -0.00000000E+00
  2 3842 -0.00000000E+00
  2 3843 -0.00000000E+00
  2 3868 -4.81619891E-03
  2 3878 -1.92647956E-03
  2 3879 -2.88971934E-03
  2 3880 -4.81619891E-03
  2 3883 -2.88971934E-03
  2 3884 -0.00000000E+00
  2 3887 -0.00000000E+00
  2 3888 -0.00000000E+00
  2 3889 -0.00000000E+00
  2 3890 -1.15588774E-02
  2 3891 -1.92647956E-03
  2 3897 -2.88971934E-03
  2 3898 -0.00000000E+00
  2 3903 -9.63239781E-04
  2 3904 -5.77943869E-03
  2 3911 -0.00000000E+00
  2 3921 -6.16473460E-02
  2 3923 -0.00000000E+00
  2 3931 -0.00000000E+00
  2 3935 -9.63239781E-03
  2 3937 -2.88971934E-03
  2 3938 -2.88971934E-03
  2 4204 -0.00000000E+00
  2 4205 -1.92647956E-03
  2 4208 -0.00000000E+00
  2 4209 -9.63239781E-04
  2 4211 -2.88971934E-03
  2 4214 -0.00000000E+00
  2 4217 -0.00000000E+00
  2 4396 -9.63239781E-04
  2 4471 -2.88971934E-03
  2 4472 -8.76548201E-02
  2 4473 -0.00000000E+00
  2 849 -0.00000000E+00
  2 856 -0.00000000E+00
  2 857 -0.00000000E+00
  2 858 -7.01778592E-04
  2 860 -7.01778592E-04
  2 1518 -0.00000000E+00
  2 1546 -7.01778592E-04
  2 1550 -0.00000000E+00
  2 1552 -7.01778592E-04
  2 1627 -0.00000000E+00
  2 1791 -2.24569149E-02
  2 1864 -7.01778592E-04
  2 1865 -2.80711437E-03
  2 1903 -0.00000000E+00
  2 1904 -7.01778592E-04
  2 1917 -1.40355718E-03
  2 1919 -2.10533578E-03
  2 1977 -6.31600733E-03
  2 2034 -2.10533578E-03
  2 2057 -3.50889296E-03
  2 2104 -2.10533578E-03
  2 2105 -2.10533578E-03
  2 2139 -0.00000000E+00
  2 2230 -7.01778592E-04
  2 2250 -0.00000000E+00
  2 2251 -7.01778592E-04
  2 2252 -7.01778592E-04
  2 2253 -2.80711437E-03
  2 2267 -2.80711437E-03
  2 2309 -2.10533578E-03
  2 2310 -2.80711437E-03
  2 2328 -5.61422873E-03
  2 2408 -0.00000000E+00
  2 2409 -7.01778592E-04
  2 2410 -0.00000000E+00
  2 2415 -2.10533578E-03
  2 2498 -0.00000000E+00
  2 2499 -1.40355718E-03
  2 2501 -7.01778592E-04
  2 2502 -1.40355718E-03
  2 2505 -4.21067155E-03
  2 2555 -0.00000000E+00
  2 2556 -1.40355718E-03
  2 2735 -3.50889296E-03
  2 2767 -5.61422873E-03
  2 3230 -1.40355718E-03
  2 3231 -7.01778592E-04
  2 3504 -5.61422873E-03
  2 3577 -7.01778592E-04
  2 3591 -0.00000000E+00
  2 3603 -8.42134310E-03
  2 3622 -0.00000000E+00
  2 3623 -0.00000000E+00
  2 3637 -5.61422873E-03
  2 3638 -0.00000000E+00
  2 3660 -0.00000000E+00
  2 4062 -7.01778592E-04
  2 4063 -1.40355718E-03
  2 4064 -7.01778592E-04
  2 4065 -0.00000000E+00
  2 4066 -0.00000000E+00
  2 4067 -7.01778592E-04
  2 4068 -2.80711437E-03
  2 4069 -1.40355718E-03
  2 4070 -0.00000000E+00
  2 4071 -0.00000000E+00
  2 4072 -1.40355718E-03
  2 4073 -4.91245014E-03
  2 4074 -0.00000000E+00
  2 4075 -3.50889296E-03
  2 1960 -0.00000000E+00
  2 2142 -8.30068643E-03
  2 2162 -0.00000000E+00
  2 2342 -0.00000000E+00
  2 2344 -2.76689548E-03
  2 2421 -0.00000000E+00
  2 2423 -6.91723869E-03
  2 2426 -0.00000000E+00
  2 2427 -0.00000000E+00
  2 2428 -0.00000000E+00
  2 2429 -1.38344774E-03
  2 2460 -4.15034321E-03
  2 2461 -1.24510296E-02
  2 2463 -0.00000000E+00
  2 2513 -0.00000000E+00
  2 2514 -1.24510296E-02
  2 2526 -6.91723869E-03
  2 2563 -0.00000000E+00
  2 2565 -0.00000000E+00
  2 2566 -8.30068643E-03
  2 2568 -0.00000000E+00
  2 2616 -0.00000000E+00
  2 2738 -0.00000000E+00
  2 2824 -8.30068643E-03
  2 2826 -1.24510296E-02
  2 2827 -5.53379095E-03
  2 2829 -4.15034321E-03
  2 2830 -0.00000000E+00
  2 2831 -1.10675819E-02
  2 2832 -2.76689548E-03
  2 2833 -0.00000000E+00
  2 2834 -1.38344774E-03
  2 2835 -0.00000000E+00
  2 2836 -4.15034321E-03
  2 2837 -0.00000000E+00
  2 2840 -0.00000000E+00
  2 2841 -8.30068643E-03
  2 2842 -4.15034321E-03
  2 2843 -0.00000000E+00
  2 3294 -0.00000000E+00
  2 3295 -1.93267649E+00
  2 3296 -5.53379095E-03
  2 3297 -4.15034321E-03
  2 3298 -0.00000000E+00
  2 3316 -0.00000000E+00
  2 3322 -4.15034321E-03
  2 3340 -0.00000000E+00
  2 3429 -0.00000000E+00
  2 3476 -5.53379095E-03
  2 3997 -9.68413417E-03
  2 3998 -0.00000000E+00
  2 3999 -1.38344774E-03
  2 4000 -0.00000000E+00
  2 4003 -0.00000000E+00
  2 4011 -1.10675819E-02
  2 4013 -1.79848206E-02
  2 4014 -0.00000000E+00
  2 4015 -6.91723869E-03
  2 4016 -5.94882527E-02
  2 4017 -8.30068643E-03
  2 4018 -0.00000000E+00
  2 4019 -0.00000000E+00
  2 4274 -0.00000000E+00
  2 4275 -0.00000000E+00
  2 4276 -6.91723869E-03
  2 4277 -0.00000000E+00
  2 4278 -5.53379095E-03
  2 4279 -0.00000000E+00
  2 4280 -4.15034321E-03
  2 4281 -0.00000000E+00
  2 4282 -5.53379095E-03
  2 4288 -8.30068643E-03
  2 4289 -2.21351638E-02
  2 4290 -9.68413417E-03
  2 4291 -1.93682683E-02
  2 4295 -1.10675819E-02
  2 4299 -2.07517161E-02
  2 524 -1.16587945E-02
  2 1603 -0.00000000E+00
  2 1884 -1.38448185E-02
  2 1997 -0.00000000E+00
  2 2113 -0.00000000E+00
  2 2115 -5.90226472E-02
  2 2156 -0.00000000E+00
  2 2157 -0.00000000E+00
  2 2172 -0.00000000E+00
  2 2266 -5.10072259E-03
  2 2821 -0.00000000E+00
  2 3127 -0.00000000E+00
  2 3130 -2.91469863E-03
  2 3134 -2.18602397E-03
  2 3242 -7.28674656E-04
  2 3781 -7.28674656E-04
  2 3783 -0.00000000E+00
  2 3785 -0.00000000E+00
  2 3787 -2.83454441E-01
  2 3793 -0.00000000E+00
  2 3797 -0.00000000E+00
  2 3799 -0.00000000E+00
  2 3800 -7.28674656E-04
  2 3801 -1.45734931E-03
  2 3802 -1.09301198E-02
  2 4111 -0.00000000E+00
  2 4112 -7.43248150E-02
  2 4113 -4.37204794E-03
  2 4114 -8.74409588E-03
  2 4115 -1.45734931E-03
  2 4116 -6.55807191E-03
  2 4119 -7.28674656E-04
  2 4120 -2.91469863E-03
  2 4121 -2.62322876E-02
  2 4122 -7.28674656E-04
  2 4123 -0.00000000E+00
  2 4124 -2.91469863E-03
  2 4126 -7.28674656E-04
  2 4129 -2.15687698E-01
  2 4130 -0.00000000E+00
  2 4135 -1.45734931E-03
  2 4136 -1.45734931E-03
  2 4138 -0.00000000E+00
  2 4139 -1.60308424E-02
  2 4140 -4.15344554E-02
  2 4147 -0.00000000E+00
  2 4148 -7.28674656E-04
  2 4162 -0.00000000E+00
  2 4175 -0.00000000E+00
  2 128 -3.37417859E-02
  2 723 -0.00000000E+00
  2 1475 -7.49817464E-03
  2 1810 -1.67771658E-01
  2 1912 -0.00000000E+00
  2 1930 -8.43544647E-03
  2 1965 -5.62363098E-03
  2 1973 -5.62363098E-02
  2 2001 -3.74908732E-03
  2 2007 -3.56163295E-02
  2 2008 -0.00000000E+00
  2 2040 -0.00000000E+00
  2 2055 -7.49817464E-03
  2 2067 -0.00000000E+00
  2 2093 -0.00000000E+00
  2 2148 -2.81181549E-03
  2 2149 -1.96827084E-02
  2 2159 -1.87454366E-03
  2 2170 -0.00000000E+00
  2 2171 -0.00000000E+00
  2 2187 -0.00000000E+00
  2 2206 -0.00000000E+00
  2 2235 -2.62436112E-02
  2 2236 -6.56090281E-03
  2 2300 -2.34317958E-02
  2 2847 -0.00000000E+00
  2 2850 -9.37271830E-03
  2 3144 -0.00000000E+00
  2 3157 -1.87454366E-03
  2 3161 -2.81181549E-03
  2 3165 -0.00000000E+00
  2 3171 -1.87454366E-03
  2 3172 -0.00000000E+00
  2 3173 -0.00000000E+00
  2 3174 -0.00000000E+00
  2 3175 -1.03099901E-02
  2 3176 -5.62363098E-03
  2 3177 -8.43544647E-03
  2 3179 -7.49817464E-03
  2 3180 -0.00000000E+00
  2 3183 -0.00000000E+00
  2 3184 -0.00000000E+00
  2 3185 -0.00000000E+00
  2 3221 -0.00000000E+00
  2 3805 -9.37271830E-04
  2 3806 -0.00000000E+00
  2 3807 -1.31218056E-02
  2 3809 -0.00000000E+00
  2 3810 -0.00000000E+00
  2 3812 -1.31218056E-02
  2 3813 -2.81181549E-03
  2 3814 -1.03099901E-02
  2 3815 -5.62363098E-03
  2 3816 -0.00000000E+00
  2 3817 -0.00000000E+00
  2 3818 -0.00000000E+00
  2 3819 -2.81181549E-03
  2 3821 -9.37271830E-04
  2 3822 -6.56090281E-03
  2 3823 -0.00000000E+00
  2 3825 -8.43544647E-03
  2 3826 -8.43544647E-03
  2 3827 -0.00000000E+00
  2 3828 -1.87454366E-01
  2 3835 -1.31218056E-02
  2 3836 -8.43544647E-03
  2 3839 -7.49817464E-03
  2 3840 -0.00000000E+00
  2 3842 -0.00000000E+00
  2 3844 -5.62363098E-03
  2 3845 -7.49817464E-03
  2 3846 -5.62363098E-03
  2 3847 -7.49817464E-03
  2 3849 -8.43544647E-03
  2 3850 -1.78081648E-02
  2 3851 -8.43544647E-03
  2 3852 -1.03099901E-02
  2 3878 -1.87454366E-03
  2 3885 -0.00000000E+00
  2 3939 -1.87454366E-03
  2 3940 -8.43544647E-03
  2 3941 -1.40590775E-02
  2 3942 -8.43544647E-03
  2 3945 -2.81181549E-03
  2 3946 -1.03099901E-02
  2 3948 -1.96827084E-02
  2 3953 -1.87454366E-03
  2 3962 -0.00000000E+00
  2 3963 -9.37271830E-03
  2 3964 -5.62363098E-03
  2 3965 -1.12472620E-02
  2 3966 -1.03099901E-02
  2 3967 -4.68635915E-03
  2 3968 -8.43544647E-03
  2 3969 -0.00000000E+00
  2 3970 -0.00000000E+00
  2 4185 -0.00000000E+00
  2 4186 -9.37271830E-04
  2 4187 -1.12472620E-02
  2 4188 -0.00000000E+00
  2 4189 -0.00000000E+00
  2 4380 -0.00000000E+00
  2 4381 -0.00000000E+00
  2 4382 -0.00000000E+00
  2 4384 -0.00000000E+00
  2 4385 -0.00000000E+00
  2 4386 -0.00000000E+00
  2 4389 -0.00000000E+00
  2 8 -4.33609368E-04
  2 9 -0.00000000E+00
  2 13 -3.33879213E-02
  2 14 -5.57497759E-04
  2 15 -0.00000000E+00
  2 18 -7.43330345E-04
  2 20 -3.09720977E-04
  2 23 -4.33609368E-04
  2 27 -6.19441954E-04
  2 29 -5.57497759E-04
  2 30 -3.71665172E-04
  2 31 -0.00000000E+00
  2 32 -6.19441954E-04
  2 33 -0.00000000E+00
  2 35 -5.57497759E-04
  2 36 -7.43330345E-04
  2 37 -3.33879213E-02
  2 41 -2.47776782E-04
  2 42 -0.00000000E+00
  2 44 -1.85832586E-04
  2 46 -5.76700459E-02
  2 56 -1.85832586E-04
  2 58 -1.85832586E-04
  2 61 -1.85832586E-04
  2 62 -5.76700459E-02
  2 64 -1.85832586E-04
  2 65 -6.19441954E-05
  2 67 -0.00000000E+00
  2 70 -2.47776782E-04
  2 72 -4.33609368E-04
  2 74 -6.19441954E-05
  2 76 -2.47776782E-04
  2 78 -4.33609368E-04
  2 87 -0.00000000E+00
  2 90 -0.00000000E+00
  2 115 -4.33609368E-04
  2 118 -5.57497759E-04
  2 128 -2.22999103E-03
  2 155 -4.33609368E-04
  2 723 -0.00000000E+00
  2 1034 -3.09720977E-04
  2 1316 -0.00000000E+00
  2 1317 -4.33609368E-04
  2 1339 -1.73443747E-03
  2 1342 -1.85832586E-04
  2 1343 -3.33879213E-02
  2 1345 -3.33879213E-02
  2 1346 -6.19441954E-05
  2 1445 -1.73443747E-03
  2 1446 -2.16928572E-01
  2 1459 -6.19441954E-05
  2 1460 -0.00000000E+00
  2 1474 -1.85832586E-04
  2 1475 -4.95553563E-04
  2 1548 -6.19441954E-05
  2 1553 -3.71665172E-04
  2 1555 -5.57497759E-04
  2 1656 -0.00000000E+00
  2 1672 -0.00000000E+00
  2 1673 -4.33609368E-04
  2 1692 -3.09720977E-04
  2 1694 -5.57497759E-04
  2 1695 -3.71665172E-04
  2 1739 -4.33609368E-04
  2 1751 -1.23888391E-04
  2 1752 -7.43330345E-04
  2 1770 -6.81386150E-04
  2 1771 -4.33609368E-04
  2 1772 -6.19441954E-04
  2 1810 -1.10880110E-02
  2 1812 -4.33609368E-04
  2 1813 -0.00000000E+00
  2 1814 -3.90248431E-03
  2 1866 -0.00000000E+00
  2 1867 -2.47776782E-04
  2 1887 -4.33609368E-04
  2 1888 -4.33609368E-04
  2 1912 -0.00000000E+00
  2 1913 -4.95553563E-04
  2 1930 -5.57497759E-04
  2 1931 -3.09720977E-04
  2 1948 -5.57497759E-04
  2 1955 -1.23888391E-04
  2 1956 -9.29162931E-04
  2 1963 -4.33609368E-04
  2 1964 -0.00000000E+00
  2 1965 -3.71665172E-04
  2 1966 -5.57497759E-04
  2 1973 -3.71665172E-03
  2 1974 -6.81386150E-04
  2 2001 -2.47776782E-04
  2 2007 -2.35387943E-03
  2 2008 -0.00000000E+00
  2 2040 -0.00000000E+00
  2 2055 -4.95553563E-04
  2 2067 -0.00000000E+00
  2 2093 -0.00000000E+00
  2 2187 -0.00000000E+00
  2 2205 -4.95553563E-04
  2 2206 -0.00000000E+00
  2 2234 -7.43330345E-04
  2 2235 -1.73443747E-03
  2 2236 -4.33609368E-04
  2 2237 -0.00000000E+00
  2 2295 -0.00000000E+00
  2 2307 -4.33609368E-04
  2 2308 -5.57497759E-04
  2 3171 -1.23888391E-04
  2 3172 -0.00000000E+00
  2 3173 -0.00000000E+00
  2 3174 -0.00000000E+00
  2 3175 -6.81386150E-04
  2 3177 -5.57497759E-04
  2 3180 -0.00000000E+00
  2 3183 -0.00000000E+00
  2 3184 -0.00000000E+00
  2 3815 -3.71665172E-04
  2 3826 -5.57497759E-04
  2 3827 -0.00000000E+00
  2 3828 -1.23888391E-02
  2 3835 -8.67218736E-04
  2 3836 -5.57497759E-04
  2 3837 -4.33609368E-04
  2 3838 -6.19441954E-04
  2 3847 -4.95553563E-04
  2 3849 -5.57497759E-04
  2 3324 -4.62091397E-02
  2 3344 -0.00000000E+00
  2 3349 -1.98039170E-02
  2 3379 -0.00000000E+00
  2 3392 -0.00000000E+00
  2 3399 -6.60130566E-03
  2 3403 -0.00000000E+00
  2 3404 -0.00000000E+00
  2 3405 -0.00000000E+00
  2 3407 -0.00000000E+00
  2 3416 -0.00000000E+00
  2 3417 -0.00000000E+00
  2 3419 -0.00000000E+00
  2 3426 -0.00000000E+00
  2 3427 -0.00000000E+00
  2 3428 -1.32026113E-02
  2 3431 -0.00000000E+00
  2 3432 -0.00000000E+00
  2 3433 -0.00000000E+00
  2 3434 -1.32026113E-02
  2 3435 -0.00000000E+00
  2 3436 -2.64052227E-02
  2 3440 -0.00000000E+00
  2 3441 -0.00000000E+00
  2 3442 -0.00000000E+00
  2 3460 -1.98039170E-02
  2 3474 -0.00000000E+00
  2 3476 -2.64052227E-02
  2 3480 -3.30065283E-02
  2 3482 -1.32026113E-02
  2 4000 -0.00000000E+00
  2 4033 -6.60130566E-03
  2 4034 -6.60130566E-03
  2 4276 -3.30065283E-02
  2 4277 -0.00000000E+00
  2 4280 -1.98039170E-02
  2 4281 -0.00000000E+00
  2 4282 -2.64052227E-02
  2 4283 -2.64052227E-02
  2 4284 -0.00000000E+00
  2 4285 -0.00000000E+00
  2 4286 -1.32026113E-02
  2 4287 -3.30065283E-02
  2 4288 -3.96078340E-02
  2 4289 -1.05620891E-01
  2 4290 -4.62091397E-02
  2 4292 -0.00000000E+00
  2 4293 -1.32026113E-02
  2 4294 -1.98039170E-02
  2 4295 -5.28104453E-02
  2 4296 -0.00000000E+00
  2 4298 -3.30065283E-02
  2 4299 -9.90195850E-02
  2 4744 -0.00000000E+00
  2 4745 -1.32026113E-02
  2 4746 -6.60130566E-03
  2 4747 -0.00000000E+00
  2 4748 -0.00000000E+00
  2 4749 -0.00000000E+00
  2 4750 -0.00000000E+00
  2 4751 -3.30065283E-02
  2 4752 -0.00000000E+00
  2 4753 -1.32026113E-02
  2 4754 -1.32026113E-02
  2 4755 -0.00000000E+00
  2 4118 -4.33063343E-05
  2 4152 -2.59838006E-04
  2 4254 -1.04693063E-01
  2 4271 -5.74675057E-02
  2 4376 -2.16531672E-04
  2 4404 -6.49595015E-05
  2 4410 -1.08265836E-04
  2 4414 -2.16531672E-05
  2 4415 -6.49595015E-05
  2 4416 -1.17576698E-01
  2 4420 -2.42515472E-03
  2 4424 -0.00000000E+00
  2 4437 -3.89757009E-04
  2 4452 -2.65684361E-02
  2 4462 -1.38580270E-03
  2 4463 -6.60421599E-03
  2 4464 -0.00000000E+00
  2 4477 -3.73300602E-02
  2 4483 -1.37714143E-02
  2 97 -0.00000000E+00
  2 134 -0.00000000E+00
  2 374 -0.00000000E+00
  2 519 -0.00000000E+00
  2 528 -0.00000000E+00
  2 538 -0.00000000E+00
  2 542 -0.00000000E+00
  2 546 -0.00000000E+00
  2 554 -0.00000000E+00
  2 556 -0.00000000E+00
  2 557 -0.00000000E+00
  2 558 -0.00000000E+00
  2 561 -0.00000000E+00
  2 563 -0.00000000E+00
  2 566 -0.00000000E+00
  2 567 -0.00000000E+00
  2 570 -0.00000000E+00
  2 575 -0.00000000E+00
  2 576 -0.00000000E+00
  2 579 -0.00000000E+00
  2 582 -0.00000000E+00
  2 584 -0.00000000E+00
  2 585 -0.00000000E+00
  2 587 -0.00000000E+00
  2 589 -0.00000000E+00
  2 590 -0.00000000E+00
  2 592 -0.00000000E+00
  2 633 -0.00000000E+00
  2 634 -0.00000000E+00
  2 635 -0.00000000E+00
  2 682 -0.00000000E+00
  2 775 -0.00000000E+00
  2 782 -0.00000000E+00
  2 892 -0.00000000E+00
  2 933 -0.00000000E+00
  2 990 -0.00000000E+00
  2 991 -0.00000000E+00
  2 1016 -0.00000000E+00
  2 1018 -0.00000000E+00
  2 1036 -0.00000000E+00
  2 1080 -0.00000000E+00
  2 1113 -0.00000000E+00
  2 1176 -0.00000000E+00
  2 1274 -0.00000000E+00
  2 1281 -0.00000000E+00
  2 1302 -0.00000000E+00
  2 1303 -0.00000000E+00
  2 1314 -0.00000000E+00
  2 1336 -0.00000000E+00
  2 1354 -0.00000000E+00
  2 1362 -0.00000000E+00
  2 1364 -0.00000000E+00
  2 1365 -0.00000000E+00
  2 1390 -0.00000000E+00
  2 1401 -0.00000000E+00
  2 1479 -0.00000000E+00
  2 1503 -0.00000000E+00
  2 1506 -2.20684716E-02
  2 1565 -0.00000000E+00
  2 1566 -0.00000000E+00
  2 1567 -0.00000000E+00
  2 1594 -0.00000000E+00
  2 1685 -0.00000000E+00
  2 1747 -4.41369432E-03
  2 1748 -4.41369432E-03
  2 1764 -0.00000000E+00
  2 1868 -0.00000000E+00
  2 1959 -1.76547773E-02
  2 1961 -8.82738865E-03
  2 1975 -4.85506376E-02
  2 2052 -5.29643319E-02
  2 2817 -0.00000000E+00
  2 2819 -0.00000000E+00
  2 2821 -0.00000000E+00
  2 3242 -4.41369432E-03
  2 3244 -2.20684716E-02
  2 3784 -0.00000000E+00
  2 3788 -3.08958603E-02
  2 4148 -4.41369432E-03
  2 4161 -0.00000000E+00
  2 4162 -0.00000000E+00
  2 524 -1.69414888E-02
  2 1486 -0.00000000E+00
  2 1579 -0.00000000E+00
  2 1603 -0.00000000E+00
  2 1716 -0.00000000E+00
  2 1873 -0.00000000E+00
  2 1877 -0.00000000E+00
  2 1884 -2.01180180E-02
  2 1906 -9.42370315E-02
  2 1997 -0.00000000E+00
  2 2004 -2.11768610E-03
  2 2079 -0.00000000E+00
  2 2080 -0.00000000E+00
  2 2113 -0.00000000E+00
  2 2115 -8.57662871E-02
  2 2156 -0.00000000E+00
  2 2157 -0.00000000E+00
  2 2172 -0.00000000E+00
  2 2173 -4.23537220E-03
  2 3130 -4.23537220E-03
  2 3779 -0.00000000E+00
  2 3781 -1.05884305E-03
  2 3782 -8.47074441E-03
  2 3791 -0.00000000E+00
  2 3792 -1.05884305E-03
  2 3799 -0.00000000E+00
  2 3801 -2.11768610E-03
  2 4111 -0.00000000E+00
  2 4114 -1.27061166E-02
  2 4132 -1.48238027E-02
  2 272 -0.00000000E+00
  2 306 -2.71202900E-03
  2 525 -6.92432936E-04
  2 526 -2.53892076E-03
  2 527 -1.73108234E-03
  2 529 -2.71202900E-03
  2 536 -2.71202900E-03