# File generated by Flopy version 3.9.1 on 02/09/2026 at 21:32:11.
BEGIN options
  SAVE_FLOWS
END options

BEGIN dimensions
  MAXBOUND  3735
  NSEG  1
END dimensions

BEGIN period  1
  1 8       4.00000000  4.87848162E-09       2.00000000
  1 9      11.00000000  4.61752947E-09       2.00000000
  1 13       7.00000000  4.61752947E-09       2.00000000
  1 14       7.00000000  4.61752947E-09       2.00000000
  1 15      10.00000000  4.61752947E-09       2.00000000
  1 18       6.00000000  4.61752947E-09       2.00000000
  1 20       1.00000000  4.76684026E-09       2.00000000
  1 23       1.00000000  4.76684026E-09       2.00000000
  1 27       5.00000000  4.87848162E-09       2.00000000
  1 29       5.00000000  4.61752947E-09       2.00000000
  1 30       3.00000000  4.76684026E-09       2.00000000
  1 31       6.00000000  4.61752947E-09       2.00000000
  1 32       6.00000000  4.61752947E-09       2.00000000
  1 33       5.00000000  4.61752947E-09       2.00000000
  1 35       4.00000000  4.87848162E-09       2.00000000
  1 36      12.00000000  4.49536897E-09       2.00000000
  1 37       7.00000000  4.61752947E-09       2.00000000
  1 38      -9.00000000  4.14388079E-09       2.00000000
  1 41      11.00000000  4.49536897E-09       2.00000000
  1 42      11.00000000  4.61752947E-09       2.00000000
  1 44      12.00000000  4.49536897E-09       2.00000000
  1 46       7.00000000  4.61752947E-09       2.00000000
  1 48      79.00000000  4.08616829E-09       2.00000000
  1 51      65.00000000  4.24052837E-09       2.00000000
  1 56      12.00000000  4.49536897E-09       2.00000000
  1 58      12.00000000  4.19784341E-09       2.00000000
  1 59     123.00000000  4.12984358E-09       2.00000000
  1 61      13.00000000  4.49536897E-09       2.00000000
  1 62       7.00000000  4.61752947E-09       2.00000000
  1 63      -2.00000000  4.67454564E-09       2.00000000
  1 64      12.00000000  4.49536897E-09       2.00000000
  1 65      18.00000000  4.19784341E-09       2.00000000
  1 67      29.00000000  4.19784341E-09       2.00000000
  1 70      17.00000000  4.19784341E-09       2.00000000
  1 72       5.00000000  4.76684026E-09       2.00000000
  1 73      -2.00000000  4.67454564E-09       2.00000000
  1 74      16.00000000  4.19784341E-09       2.00000000
  1 75      -2.00000000  4.67454564E-09       2.00000000
  1 76      10.00000000  4.49536897E-09       2.00000000
  1 78       0.00000000  4.76684026E-09       2.00000000
  1 80      -3.00000000  4.67454564E-09       2.00000000
  1 82      -8.00000000  5.71504666E-09       2.00000000
  1 83     -11.00000000  5.71504666E-09       2.00000000
  1 87       2.00000000  5.53148505E-09       2.00000000
  1 90      -1.00000000  5.53148505E-09       2.00000000
  1 92       5.00000000  5.71504666E-09       2.00000000
  1 96      -5.00000000  5.71504666E-09       2.00000000
  1 98     -16.00000000  5.71504666E-09       2.00000000
  1 100       1.00000000  5.71504666E-09       2.00000000
  1 101     -13.00000000  5.71504666E-09       2.00000000
  1 103     -16.00000000  5.71504666E-09       2.00000000
  1 105      -7.00000000  4.14388079E-09       2.00000000
  1 107       3.00000000  5.66805580E-09       2.00000000
  1 108       2.00000000  5.66805580E-09       2.00000000
  1 109      33.00000000  3.27883720E-09       2.00000000
  1 111       4.00000000  5.66805580E-09       2.00000000
  1 113       4.00000000  5.66805580E-09       2.00000000
  1 114      -4.00000000  4.14388079E-09       2.00000000
  1 115       1.00000000  4.76684026E-09       2.00000000
  1 116      -2.00000000  4.67454564E-09       2.00000000
  1 117       3.00000000  5.66805580E-09       2.00000000
  1 118       4.00000000  5.05002529E-09       2.00000000
  1 120       5.00000000  5.66805580E-09       2.00000000
  1 121       1.00000000  5.66805580E-09       2.00000000
  1 122      -2.00000000  4.14388079E-09       2.00000000
  1 123       0.00000000  5.66805580E-09       2.00000000
  1 128       7.00000000  4.64889549E-09       2.00000000
  1 133      10.00000000  5.47655343E-09       2.00000000
  1 139       7.00000000  5.47655343E-09       2.00000000
  1 155       2.00000000  4.64889549E-09       2.00000000
  1 156      32.00000000  3.27883720E-09       2.00000000
  1 157      87.00000000  4.24052837E-09       2.00000000
  1 159     108.00000000  3.72400200E-09       2.00000000
  1 160       8.00000000  5.04191844E-09       2.00000000
  1 161     108.00000000  3.72400200E-09       2.00000000
  1 164      83.00000000  3.69435194E-09       2.00000000
  1 166     117.00000000  3.93281807E-09       2.00000000
  1 167      79.00000000  3.58363916E-09       2.00000000
  1 170      -3.00000000  4.14388079E-09       2.00000000
  1 171      86.00000000  3.58363916E-09       2.00000000
  1 172      79.00000000  3.55499341E-09       2.00000000
  1 174      87.00000000  3.58363916E-09       2.00000000
  1 176      88.00000000  3.55499341E-09       2.00000000
  1 177      85.00000000  4.15786738E-09       2.00000000
  1 178      91.00000000  4.15786738E-09       2.00000000
  1 180      -9.00000000  4.14388079E-09       2.00000000
  1 181     -16.00000000  5.04191844E-09       2.00000000
  1 182     111.00000000  4.08339007E-09       2.00000000
  1 184     -14.00000000  5.04191844E-09       2.00000000
  1 185     101.00000000  3.93281807E-09       2.00000000
  1 187      77.00000000  4.15786738E-09       2.00000000
  1 188      87.00000000  4.15786738E-09       2.00000000
  1 189      89.00000000  4.13709778E-09       2.00000000
  1 190      90.00000000  4.08339007E-09       2.00000000
  1 191     112.00000000  3.72400200E-09       2.00000000
  1 192       0.00000000  3.92212840E-09       2.00000000
  1 194      61.00000000  3.49964790E-09       2.00000000
  1 196      -2.00000000  4.67454564E-09       2.00000000
  1 197      67.00000000  3.49420004E-09       2.00000000
  1 199      79.00000000  3.55499341E-09       2.00000000
  1 200      86.00000000  3.49420004E-09       2.00000000
  1 201      67.00000000  3.49420004E-09       2.00000000
  1 202      82.00000000  3.57475183E-09       2.00000000
  1 205      58.00000000  3.49420004E-09       2.00000000
  1 206      70.00000000  3.49420004E-09       2.00000000
  1 208      -2.00000000  4.67454564E-09       2.00000000
  1 209      -9.00000000  4.14388079E-09       2.00000000
  1 211     -16.00000000  5.71504666E-09       2.00000000
  1 212      65.00000000  3.49420004E-09       2.00000000
  1 215      60.00000000  3.49964790E-09       2.00000000
  1 217      60.00000000  3.49964790E-09       2.00000000
  1 218      62.00000000  3.49964790E-09       2.00000000
  1 220      68.00000000  3.49964790E-09       2.00000000
  1 222      43.00000000  3.49964790E-09       2.00000000
  1 223      55.00000000  3.44005135E-09       2.00000000
  1 226     -16.00000000  5.71504666E-09       2.00000000
  1 227      41.00000000  3.44005135E-09       2.00000000
  1 228      59.00000000  3.44005135E-09       2.00000000
  1 233       1.00000000  4.14388079E-09       2.00000000
  1 234      77.00000000  3.55499341E-09       2.00000000
  1 235     -16.00000000  5.04191844E-09       2.00000000
  1 236      59.00000000  3.49964790E-09       2.00000000
  1 238     108.00000000  4.06025080E-09       2.00000000
  1 241     149.00000000  4.06025080E-09       2.00000000
  1 242     124.00000000  4.06025080E-09       2.00000000
  1 243     139.00000000  4.02770395E-09       2.00000000
  1 245      49.00000000  3.44005135E-09       2.00000000
  1 247     128.00000000  4.12984358E-09       2.00000000
  1 248      89.00000000  4.08339007E-09       2.00000000
  1 249      66.00000000  3.49964790E-09       2.00000000
  1 251     150.00000000  4.06025080E-09       2.00000000
  1 252      60.00000000  3.49964790E-09       2.00000000
  1 254      40.00000000  3.43605899E-09       2.00000000
  1 255      95.00000000  4.08171452E-09       2.00000000
  1 257      69.00000000  4.08616829E-09       2.00000000
  1 259      79.00000000  4.08616829E-09       2.00000000
  1 260      67.00000000  4.08616829E-09       2.00000000
  1 261      74.00000000  4.08616829E-09       2.00000000
  1 267      73.00000000  4.08616829E-09       2.00000000
  1 268      75.00000000  4.08616829E-09       2.00000000
  1 269      34.00000000  3.24517435E-09       2.00000000
  1 270      78.00000000  4.08616829E-09       2.00000000
  1 272       9.00000000  4.41029346E-09       2.00000000
  1 273      54.00000000  3.44005135E-09       2.00000000
  1 274      -8.00000000  4.14388079E-09       2.00000000
  1 275      40.00000000  3.44005135E-09       2.00000000
  1 277      33.00000000  3.43605899E-09       2.00000000
  1 279      39.00000000  3.44005135E-09       2.00000000
  1 280      40.00000000  3.44005135E-09       2.00000000
  1 282      43.00000000  3.44005135E-09       2.00000000
  1 284      37.00000000  3.44005135E-09       2.00000000
  1 285      -2.00000000  4.67454564E-09       2.00000000
  1 286      40.00000000  3.43605899E-09       2.00000000
  1 288      38.00000000  3.43605899E-09       2.00000000
  1 292      38.00000000  3.43605899E-09       2.00000000
  1 293      27.00000000  3.27883720E-09       2.00000000
  1 295      28.00000000  3.27883720E-09       2.00000000
  1 296      27.00000000  3.27883720E-09       2.00000000
  1 297      30.00000000  3.27883720E-09       2.00000000
  1 298      29.00000000  3.27883720E-09       2.00000000
  1 299     -16.00000000  5.71504666E-09       2.00000000
  1 300      26.00000000  3.27883720E-09       2.00000000
  1 301      -2.00000000  4.67454564E-09       2.00000000
  1 305      30.00000000  3.27883720E-09       2.00000000
  1 306       6.00000000  4.56789051E-09       2.00000000
  1 307      26.00000000  3.27883720E-09       2.00000000
  1 310      29.00000000  3.27883720E-09       2.00000000
  1 312      30.00000000  3.43605899E-09       2.00000000
  1 313      48.00000000  3.44005135E-09       2.00000000
  1 316      -8.00000000  4.14388079E-09       2.00000000
  1 318      28.00000000  3.27883720E-09       2.00000000
  1 328      -9.00000000  4.14388079E-09       2.00000000
  1 344      -2.00000000  4.67454564E-09       2.00000000
  1 358     -16.00000000  5.04191844E-09       2.00000000
  1 359       0.00000000  5.04191844E-09       2.00000000
  1 360       0.00000000  5.04191844E-09       2.00000000
  1 363      -9.00000000  5.04191844E-09       2.00000000
  1 366      -5.00000000  5.04191844E-09       2.00000000
  1 367     -16.00000000  5.04191844E-09       2.00000000
  1 368       8.00000000  5.04191844E-09       2.00000000
  1 371     -16.00000000  5.04191844E-09       2.00000000
  1 373       0.00000000  4.54786386E-09       2.00000000
  1 375      -9.00000000  4.14388079E-09       2.00000000
  1 376       0.00000000  4.54786386E-09       2.00000000
  1 381       0.00000000  4.54786386E-09       2.00000000
  1 383      -7.00000000  4.14388079E-09       2.00000000
  1 396       0.00000000  5.04191844E-09       2.00000000
  1 412      -2.00000000  4.67454564E-09       2.00000000
  1 421      90.00000000  4.08171452E-09       2.00000000
  1 429      -2.00000000  4.67454564E-09       2.00000000
  1 432      -2.00000000  4.67454564E-09       2.00000000
  1 436      91.00000000  3.58363916E-09       2.00000000
  1 438      -9.00000000  4.14388079E-09       2.00000000
  1 440      -2.00000000  4.67454564E-09       2.00000000
  1 445      -2.00000000  4.67454564E-09       2.00000000
  1 469     -16.00000000  5.71504666E-09       2.00000000
  1 470      -5.00000000  4.14388079E-09       2.00000000
  1 472      -2.00000000  4.67454564E-09       2.00000000
  1 474     -15.00000000  5.71504666E-09       2.00000000
  1 475       4.00000000  5.06828357E-09       2.00000000
  1 477      -2.00000000  4.67454564E-09       2.00000000
  1 480      -2.00000000  4.67454564E-09       2.00000000
  1 485     103.00000000  4.12984358E-09       2.00000000
  1 496      -2.00000000  4.67454564E-09       2.00000000
  1 502      -9.00000000  4.14388079E-09       2.00000000
  1 514     -16.00000000  5.71504666E-09       2.00000000
  1 524       3.00000000  4.74920059E-09       2.00000000
  1 525      -1.00000000  4.56789051E-09       2.00000000
  1 526       8.00000000  4.56789051E-09       2.00000000
  1 527       1.00000000  4.56789051E-09       2.00000000
  1 529       0.00000000  4.56789051E-09       2.00000000
  1 532      -9.00000000  4.14388079E-09       2.00000000
  1 536      -2.00000000  4.56789051E-09       2.00000000
  1 539      -1.00000000  4.56789051E-09       2.00000000
  1 540      -2.00000000  4.56789051E-09       2.00000000
  1 543       1.00000000  4.41029346E-09       2.00000000
  1 544       5.00000000  4.41029346E-09       2.00000000
  1 549       6.00000000  4.56789051E-09       2.00000000
  1 551       2.00000000  4.56789051E-09       2.00000000
  1 554       1.00000000  4.41029346E-09       2.00000000
  1 555      -2.00000000  4.67454564E-09       2.00000000
  1 569      -1.00000000  4.56789051E-09       2.00000000
  1 636      -2.00000000  4.67454564E-09       2.00000000
  1 638      -9.00000000  4.14388079E-09       2.00000000
  1 639      30.00000000  3.27883720E-09       2.00000000
  1 644      33.00000000  3.27883720E-09       2.00000000
  1 645      33.00000000  3.27883720E-09       2.00000000
  1 646      30.00000000  3.27883720E-09       2.00000000
  1 648      -2.00000000  4.67454564E-09       2.00000000
  1 649      33.00000000  3.27883720E-09       2.00000000
  1 653      37.00000000  3.27883720E-09       2.00000000
  1 654      33.00000000  3.27883720E-09       2.00000000
  1 656      32.00000000  3.27883720E-09       2.00000000
  1 657     -16.00000000  5.71504666E-09       2.00000000
  1 658      34.00000000  3.27883720E-09       2.00000000
  1 660      38.00000000  3.27883720E-09       2.00000000
  1 661      30.00000000  3.27883720E-09       2.00000000
  1 664      30.00000000  3.24517435E-09       2.00000000
  1 666      29.00000000  3.27883720E-09       2.00000000
  1 668      28.00000000  3.24517435E-09       2.00000000
  1 669      29.00000000  3.24517435E-09       2.00000000
  1 672      29.00000000  3.24517435E-09       2.00000000
  1 674      27.00000000  3.24517435E-09       2.00000000
  1 676      28.00000000  3.24517435E-09       2.00000000
  1 678      28.00000000  3.24517435E-09       2.00000000
  1 679      30.00000000  3.24517435E-09       2.00000000
  1 681      40.00000000  3.24517435E-09       2.00000000
  1 686      30.00000000  3.24517435E-09       2.00000000
  1 687      29.00000000  3.12870663E-09       2.00000000
  1 694      -2.00000000  4.67454564E-09       2.00000000
  1 695      -2.00000000  4.67454564E-09       2.00000000
  1 696      39.00000000  3.12870663E-09       2.00000000
  1 697      38.00000000  3.24517435E-09       2.00000000
  1 699      36.00000000  3.12870663E-09       2.00000000
  1 701      35.00000000  3.12870663E-09       2.00000000
  1 702      41.00000000  3.24517435E-09       2.00000000
  1 704      37.00000000  3.12870663E-09       2.00000000
  1 705      29.00000000  3.12870663E-09       2.00000000
  1 706      29.00000000  3.12870663E-09       2.00000000
  1 708      33.00000000  3.12870663E-09       2.00000000
  1 710      29.00000000  3.12870663E-09       2.00000000
  1 712      30.00000000  3.12870663E-09       2.00000000
  1 713      30.00000000  3.12870663E-09       2.00000000
  1 714      29.00000000  3.12870663E-09       2.00000000
  1 715      32.00000000  3.12870663E-09       2.00000000
  1 716      40.00000000  3.24517435E-09       2.00000000
  1 717     -16.00000000  5.71504666E-09       2.00000000
  1 718      29.00000000  3.24517435E-09       2.00000000
  1 719      -2.00000000  4.67454564E-09       2.00000000
  1 720      -3.00000000  4.67454564E-09       2.00000000
  1 721     -16.00000000  5.71504666E-09       2.00000000
  1 722      -2.00000000  4.67454564E-09       2.00000000
  1 723       6.00000000  5.05002529E-09       2.00000000
  1 726      -3.00000000  4.67454564E-09       2.00000000
  1 727      -2.00000000  4.67454564E-09       2.00000000
  1 728      -2.00000000  4.67454564E-09       2.00000000
  1 729      -4.00000000  4.67454564E-09       2.00000000
  1 730      -5.00000000  4.67454564E-09       2.00000000
  1 733      -4.00000000  4.67454564E-09       2.00000000
  1 735      -3.00000000  4.67454564E-09       2.00000000
  1 738      -3.00000000  4.67454564E-09       2.00000000
  1 745      -2.00000000  4.67454564E-09       2.00000000
  1 746      -2.00000000  4.67454564E-09       2.00000000
  1 747      -2.00000000  4.67454564E-09       2.00000000
  1 749      -2.00000000  4.67454564E-09       2.00000000
  1 750      -2.00000000  4.67454564E-09       2.00000000
  1 751      -9.00000000  4.14388079E-09       2.00000000
  1 753      -3.00000000  4.67454564E-09       2.00000000
  1 755      -3.00000000  4.67454564E-09       2.00000000
  1 756      -2.00000000  4.67454564E-09       2.00000000
  1 758      -2.00000000  4.67454564E-09       2.00000000
  1 759      -2.00000000  4.67454564E-09       2.00000000
  1 760      -2.00000000  4.67454564E-09       2.00000000
  1 761      -2.00000000  4.67454564E-09       2.00000000
  1 762      -2.00000000  4.67454564E-09       2.00000000
  1 763      -2.00000000  4.67454564E-09       2.00000000
  1 764      40.00000000  3.12870663E-09       2.00000000
  1 765      39.00000000  3.22670002E-09       2.00000000
  1 768      39.00000000  3.22670002E-09       2.00000000
  1 769      -1.00000000  4.67454564E-09       2.00000000
  1 770      38.00000000  3.24517435E-09       2.00000000
  1 772      -3.00000000  4.67454564E-09       2.00000000
  1 773      26.00000000  3.12451554E-09       2.00000000
  1 774      28.00000000  3.12451554E-09       2.00000000
  1 776      -2.00000000  4.67454564E-09       2.00000000
  1 778      -2.00000000  4.26248370E-09       2.00000000
  1 779      -2.00000000  4.26248370E-09       2.00000000
  1 781      -2.00000000  4.67454564E-09       2.00000000
  1 784      -2.00000000  4.26248370E-09       2.00000000
  1 786      40.00000000  3.24517435E-09       2.00000000
  1 791      -2.00000000  4.26248370E-09       2.00000000
  1 795      31.00000000  3.12870663E-09       2.00000000
  1 798      30.00000000  3.27883720E-09       2.00000000
  1 799      27.00000000  3.12451554E-09       2.00000000
  1 802      27.00000000  3.12451554E-09       2.00000000
  1 803      -2.00000000  4.67454564E-09       2.00000000
  1 804      26.00000000  3.12451554E-09       2.00000000
  1 807      29.00000000  3.12451554E-09       2.00000000
  1 809      28.00000000  3.12451554E-09       2.00000000
  1 810      -2.00000000  4.67454564E-09       2.00000000
  1 811      28.00000000  3.12451554E-09       2.00000000
  1 817      29.00000000  3.12451554E-09       2.00000000
  1 819      27.00000000  3.16369975E-09       2.00000000
  1 820      27.00000000  3.16369975E-09       2.00000000
  1 822      28.00000000  3.12451554E-09       2.00000000
  1 824      29.00000000  3.12451554E-09       2.00000000
  1 825      30.00000000  3.15066173E-09       2.00000000
  1 826     -16.00000000  5.71504666E-09       2.00000000
  1 827      21.00000000  3.15066173E-09       2.00000000
  1 828      22.00000000  3.15066173E-09       2.00000000
  1 830      30.00000000  3.15066173E-09       2.00000000
  1 832      -2.00000000  4.67454564E-09       2.00000000
  1 834      -1.00000000  4.67454564E-09       2.00000000
  1 841      24.00000000  3.14411874E-09       2.00000000
  1 842      29.00000000  3.18626503E-09       2.00000000
  1 843     -16.00000000  5.71504666E-09       2.00000000
  1 844      30.00000000  3.18626503E-09       2.00000000
  1 846     -14.00000000  5.71504666E-09       2.00000000
  1 847      24.00000000  3.14411874E-09       2.00000000
  1 849      20.00000000  3.12514969E-09       2.00000000
  1 850      25.00000000  3.14411874E-09       2.00000000
  1 852      24.00000000  3.14411874E-09       2.00000000
  1 856      26.00000000  3.02954195E-09       2.00000000
  1 857      26.00000000  3.02954195E-09       2.00000000
  1 858      28.00000000  3.02954195E-09       2.00000000
  1 860      25.00000000  3.02954195E-09       2.00000000
  1 861      20.00000000  3.12514969E-09       2.00000000
  1 863      25.00000000  3.03723846E-09       2.00000000
  1 865       5.00000000  3.50059914E-09       2.00000000
  1 866       4.00000000  4.14388079E-09       2.00000000
  1 868       8.00000000  4.25859925E-09       2.00000000
  1 870      23.00000000  3.03723846E-09       2.00000000
  1 872      21.00000000  3.08273962E-09       2.00000000
  1 874      30.00000000  3.18626503E-09       2.00000000
  1 876       0.00000000  3.92212840E-09       2.00000000
  1 880       8.00000000  4.25859925E-09       2.00000000
  1 886       7.00000000  4.18587254E-09       2.00000000
  1 887       2.00000000  4.18587254E-09       2.00000000
  1 888       3.00000000  4.18587254E-09       2.00000000
  1 889       0.00000000  4.14388079E-09       2.00000000
  1 891      10.00000000  4.18587254E-09       2.00000000
  1 896       8.00000000  4.18587254E-09       2.00000000
  1 897      11.00000000  4.18587254E-09       2.00000000
  1 898       9.00000000  4.18587254E-09       2.00000000
  1 900     -16.00000000  5.71504666E-09       2.00000000
  1 901      10.00000000  4.18587254E-09       2.00000000
  1 906       9.00000000  4.18587254E-09       2.00000000
  1 907       4.00000000  4.18587254E-09       2.00000000
  1 909      -6.00000000  4.14388079E-09       2.00000000
  1 910       4.00000000  4.18587254E-09       2.00000000
  1 911      -5.00000000  4.14388079E-09       2.00000000
  1 912       4.00000000  4.18587254E-09       2.00000000
  1 915       1.00000000  4.14388079E-09       2.00000000
  1 916      -4.00000000  4.14388079E-09       2.00000000
  1 918      -9.00000000  4.14388079E-09       2.00000000
  1 919      -6.00000000  4.14388079E-09       2.00000000
  1 921      -9.00000000  4.14388079E-09       2.00000000
  1 922      -9.00000000  4.14388079E-09       2.00000000
  1 924       6.00000000  4.51815518E-09       2.00000000
  1 926       1.00000000  4.14388079E-09       2.00000000
  1 927       4.00000000  3.85620469E-09       2.00000000
  1 929      -8.00000000  5.71504666E-09       2.00000000
  1 930       0.00000000  4.14388079E-09       2.00000000
  1 931      -2.00000000  4.14388079E-09       2.00000000
  1 934      -9.00000000  4.14388079E-09       2.00000000
  1 936      -9.00000000  4.14388079E-09       2.00000000
  1 938      -9.00000000  4.14388079E-09       2.00000000
  1 939      -9.00000000  4.14388079E-09       2.00000000
  1 941      -9.00000000  4.14388079E-09       2.00000000
  1 942      -7.00000000  4.14388079E-09       2.00000000
  1 943      -9.00000000  4.14388079E-09       2.00000000
  1 944      -9.00000000  4.14388079E-09       2.00000000
  1 945      -9.00000000  4.14388079E-09       2.00000000
  1 947      -9.00000000  4.14388079E-09       2.00000000
  1 948      -9.00000000  4.14388079E-09       2.00000000
  1 949      -8.00000000  4.14388079E-09       2.00000000
  1 950      -4.00000000  5.71504666E-09       2.00000000
  1 955      -4.00000000  3.92212840E-09       2.00000000
  1 956      27.00000000  3.12451554E-09       2.00000000
  1 958     114.00000000  4.06025080E-09       2.00000000
  1 961       9.00000000  4.18587254E-09       2.00000000
  1 962       7.00000000  4.18587254E-09       2.00000000
  1 965       8.00000000  4.18587254E-09       2.00000000
  1 968      10.00000000  4.25859925E-09       2.00000000
  1 970       1.00000000  4.25859925E-09       2.00000000
  1 971      10.00000000  4.25859925E-09       2.00000000
  1 972      -9.00000000  4.14388079E-09       2.00000000
  1 973       2.00000000  4.25859925E-09       2.00000000
  1 978       5.00000000  4.25859925E-09       2.00000000
  1 979       3.00000000  4.25859925E-09       2.00000000
  1 980      10.00000000  4.25859925E-09       2.00000000
  1 981       6.00000000  4.25859925E-09       2.00000000
  1 982     -16.00000000  5.71504666E-09       2.00000000
  1 983       8.00000000  4.25859925E-09       2.00000000
  1 984      -9.00000000  4.14388079E-09       2.00000000
  1 985      78.00000000  4.08171452E-09       2.00000000
  1 993       0.00000000  3.92212840E-09       2.00000000
  1 995      -2.00000000  3.92212840E-09       2.00000000
  1 998      -4.00000000  3.92212840E-09       2.00000000
  1 999      -9.00000000  4.14388079E-09       2.00000000
  1 1001      -8.00000000  4.14388079E-09       2.00000000
  1 1002     106.00000000  4.12984358E-09       2.00000000
  1 1003      -1.00000000  3.92212840E-09       2.00000000
  1 1012       0.00000000  3.92212840E-09       2.00000000
  1 1015      29.00000000  3.12870663E-09       2.00000000
  1 1020      79.00000000  4.15786738E-09       2.00000000
  1 1023      88.00000000  3.58363916E-09       2.00000000
  1 1024      69.00000000  3.49420004E-09       2.00000000
  1 1025      -9.00000000  4.14388079E-09       2.00000000
  1 1026      -2.00000000  4.56789051E-09       2.00000000
  1 1028      -2.00000000  4.56789051E-09       2.00000000
  1 1030      -9.00000000  4.14388079E-09       2.00000000
  1 1031      90.00000000  3.58363916E-09       2.00000000
  1 1034       2.00000000  5.05002529E-09       2.00000000
  1 1035       3.00000000  4.18587254E-09       2.00000000
  1 1038       9.00000000  4.25859925E-09       2.00000000
  1 1043       1.00000000  3.92212840E-09       2.00000000
  1 1053       8.00000000  4.25859925E-09       2.00000000
  1 1063      -9.00000000  4.14388079E-09       2.00000000
  1 1065      -9.00000000  4.14388079E-09       2.00000000
  1 1072      -7.00000000  5.71504666E-09       2.00000000
  1 1074      -6.00000000  4.14388079E-09       2.00000000
  1 1075     -16.00000000  5.71504666E-09       2.00000000
  1 1077      33.00000000  3.27883720E-09       2.00000000
  1 1088      -2.00000000  4.67454564E-09       2.00000000
  1 1089      -9.00000000  4.14388079E-09       2.00000000
  1 1095      -2.00000000  4.67454564E-09       2.00000000
  1 1097      33.00000000  3.27883720E-09       2.00000000
  1 1105      31.00000000  3.27883720E-09       2.00000000
  1 1106      -9.00000000  4.14388079E-09       2.00000000
  1 1115       0.00000000  3.92212840E-09       2.00000000
  1 1116       3.00000000  4.56789051E-09       2.00000000
  1 1117      -9.00000000  4.14388079E-09       2.00000000
  1 1119      40.00000000  3.43605899E-09       2.00000000
  1 1128      26.00000000  3.24517435E-09       2.00000000
  1 1145      -9.00000000  4.14388079E-09       2.00000000
  1 1154      -9.00000000  4.14388079E-09       2.00000000
  1 1160      -9.00000000  4.14388079E-09       2.00000000
  1 1163      -9.00000000  4.14388079E-09       2.00000000
  1 1198      -9.00000000  4.14388079E-09       2.00000000
  1 1237      18.00000000  4.56789051E-09       2.00000000
  1 1250       1.00000000  4.54786386E-09       2.00000000
  1 1262      -2.00000000  4.67454564E-09       2.00000000
  1 1265       2.00000000  4.56789051E-09       2.00000000
  1 1266      26.00000000  3.12451554E-09       2.00000000
  1 1267      -9.00000000  4.14388079E-09       2.00000000
  1 1271      -8.00000000  5.04191844E-09       2.00000000
  1 1277       5.00000000  3.92601374E-09       2.00000000
  1 1278      -9.00000000  4.14388079E-09       2.00000000
  1 1280       1.00000000  5.71504666E-09       2.00000000
  1 1289       7.00000000  4.56789051E-09       2.00000000
  1 1290       5.00000000  4.56789051E-09       2.00000000
  1 1298      -4.00000000  4.14388079E-09       2.00000000
  1 1304       0.00000000  3.92212840E-09       2.00000000
  1 1308      -1.00000000  4.56789051E-09       2.00000000
  1 1310       0.00000000  3.92212840E-09       2.00000000
  1 1312      15.00000000  4.56789051E-09       2.00000000
  1 1313      -1.00000000  4.56789051E-09       2.00000000
  1 1314       2.00000000  4.36160574E-09       2.00000000
  1 1315       0.00000000  4.18587254E-09       2.00000000
  1 1316      11.00000000  4.61752947E-09       2.00000000
  1 1317       2.00000000  4.76684026E-09       2.00000000
  1 1318      29.00000000  3.12451554E-09       2.00000000
  1 1319       6.00000000  4.18587254E-09       2.00000000
  1 1325     -16.00000000  5.71504666E-09       2.00000000
  1 1326     -11.00000000  5.71504666E-09       2.00000000
  1 1337      27.00000000  3.12451554E-09       2.00000000
  1 1339       8.00000000  4.61752947E-09       2.00000000
  1 1340      28.00000000  3.12451554E-09       2.00000000
  1 1342      12.00000000  4.49536897E-09       2.00000000
  1 1343       8.00000000  4.61752947E-09       2.00000000
  1 1344      27.00000000  3.12451554E-09       2.00000000
  1 1345       7.00000000  4.61752947E-09       2.00000000
  1 1346      14.00000000  4.19784341E-09       2.00000000
  1 1347      30.00000000  3.12870663E-09       2.00000000
  1 1348      -9.00000000  4.54786386E-09       2.00000000
  1 1349      29.00000000  3.12870663E-09       2.00000000
  1 1350      39.00000000  3.12870663E-09       2.00000000
  1 1351      36.00000000  3.12870663E-09       2.00000000
  1 1352      27.00000000  3.12451554E-09       2.00000000
  1 1353      -4.00000000  4.67454564E-09       2.00000000
  1 1354       2.00000000  4.36160574E-09       2.00000000
  1 1355       1.00000000  4.25859925E-09       2.00000000
  1 1356       0.00000000  3.92212840E-09       2.00000000
  1 1361       0.00000000  3.92212840E-09       2.00000000
  1 1365       1.00000000  4.36160574E-09       2.00000000
  1 1366       0.00000000  4.14388079E-09       2.00000000
  1 1368      -7.00000000  4.14388079E-09       2.00000000
  1 1374      -3.00000000  4.67454564E-09       2.00000000
  1 1378       1.00000000  3.92212840E-09       2.00000000
  1 1379       5.00000000  4.56789051E-09       2.00000000
  1 1380      12.00000000  4.56789051E-09       2.00000000
  1 1385     -11.00000000  4.54786386E-09       2.00000000