# File generated by Flopy version 3.9.1 on 02/09/2026 at 21:32:11.
BEGIN options
END options

BEGIN griddata
  strt  LAYERED
    INTERNAL  FACTOR  1.0
           0.46627740       0.34205687       0.33920826       0.33486893       0.33726559       0.34115463       2.47409155       0.45948747       0.55270909       0.33465846       0.32491326       0.33749573       0.50237150       0.48775770       0.52736391       0.33839343       2.47858971       0.48390793       0.28500591       0.48392284
           0.23047613       0.51497206       0.46581401       0.51491370       0.23028520       0.26558621       0.45662536       0.34072275       0.45631964       0.45454048       0.47610358       0.48143976       0.48412000       0.28500871       0.45876879       0.50567747       0.50431440       2.22528457       2.47502747       0.31280529
           0.52531836       0.54178072       2.47458906       0.51938249       0.44147744       0.49978634       0.51528239       1.84751119       0.31747689       0.34218254       1.72627301       0.33676684       0.40646399       2.47382058       0.41686766       0.52187353       0.73695142       0.52129353       1.87796538       2.47520661
           0.49592043       0.49118762       0.64943738       0.51748688       0.47614187       0.34468000       0.47720743       0.44401847       0.25387824       0.47678447       0.34335765       0.44770536       0.65021354       0.49385773       0.65348216       0.52351672       0.28500663       0.46487405       0.57190188       0.52641595
           0.30708839       0.54274312       0.54367803       0.22917088       0.57125344       0.49355051       0.45669425       0.28501275       0.34543744       0.45981087       0.78560594       0.54169851       0.23030872       0.24624470       1.71855166       0.54345878       0.62227746       0.54358571       2.47064960       0.54431558
           0.54237400       0.34627832       0.54357086       0.42444780       2.24514741       0.63191630       0.71486458       0.70678282       1.87820714       1.83973770       0.68555642       1.79067830       0.67843632       2.20996760       0.46798683       0.64621039       0.74974800       0.49909733       2.00918867       0.72214945
           0.77222049       2.19931085       0.76705992       1.46108379       0.24260636       0.76200422       0.28500956       0.48068482       0.76116387       0.40747046       0.77995556       0.33756166       0.55538805       0.61953349       1.51460528       0.67433351       0.43892141       0.48135719       0.50905312       1.46134595
           0.68962710       0.43744741       0.49807468       0.43642886       2.47488293       0.43517477       0.42009234       0.41915594       0.74543052       0.50910147       0.43433566       0.33417208       0.43264544       1.72930283       0.47826043       1.87809704       1.75075104       0.30374241       1.85079460       0.32656416
           1.80627983       1.72248813       0.40763893       1.80756515       0.40383510       1.84456164       1.79987845       0.33596635       0.28502148       2.20451368       1.80108270       1.80968366       0.43132698       1.80040132       0.43717462       1.80752099       1.85144736       1.85218787       0.61620166       2.25196542
           0.32448672       1.85905835       0.28500490       0.32515289       1.85304900       1.77055370       1.85353556       1.85162590       1.84966580       1.86251553       1.80762852       1.55790707       1.77369147       1.81660851       0.40762406       0.53238772       1.80622151       0.33519173       1.80806407       1.80782574
           1.80878268       1.81527531       1.79012827       0.28500695       1.80687460       1.80660690       2.47331944       0.64980248       2.25588801       0.33781396       0.54348688       1.80812131       2.59270050       2.47544136       1.81345396       2.47519397       1.81424638       1.81377537       0.34275681       1.81840135
           2.47487732       1.81702593       1.80976180       2.47359434       2.47576667       0.54306657       1.80832679       1.80944186       0.40694473       2.47508031       2.47817606       0.34317543       2.23431290       1.81238098       0.32492044       1.81439366       2.47413413       1.88134530       2.47435281       0.51519133
           1.88865982       1.89088987       1.88482446       0.40749828       1.81213454       0.32181547       1.87873985       1.87552833       1.81444712       0.26628947       1.87669786       1.81209757       0.28501034       1.81131596       1.83986846       0.34022689       1.87938822       2.54717538       1.84451521       1.84946224
           1.84801091       0.26607675       0.34025457       2.47431025       0.34373981       0.33207694       1.87947972       1.87006499       1.88782231       1.85304899       0.51513865       0.33665060       1.81173388       2.24836839       1.81014064       0.26686280       1.81285887       2.47346046       1.80965841       1.80967957
           2.47755133       1.80938570       2.47388694       1.81010092       0.65043806       1.81058896       2.47323137       1.87723025       0.26696539       2.47551154       2.46532505       1.87768509       1.87636057       2.47330456       1.87684941       1.87708440       1.87849147       1.87831327       0.54361853       1.87959439
           0.65240886       2.47511472       0.32708988       0.31148413       1.87837827       0.33191426       1.87642721       0.34167246       0.51332386       1.88257298       0.23602950       1.87834166       1.80927029       0.44281868       0.33438276       2.25671744       0.26300782       1.87904304       0.46369244       0.34396194
           0.42234673       2.47571119       0.42376831       2.47391589       2.47553123       2.47635969       0.34574707       2.23177705       0.44362622       0.41977558       0.41892015       0.28837828       0.42077174       0.44665894       0.33353691       0.42191939       2.47454310       0.42216830       2.47372692       0.27042611
           0.31571272       2.47398920       0.41806469       0.65003540       0.40771052       0.40759214       2.47541481       0.41608395       0.40706065       0.33627679       0.40803677       0.26119002       0.40698328       2.47603825       0.40604179       0.26611929       0.51524258       0.32328814       0.32570205       0.33613008
           0.26653804       0.22614115       0.32207641       0.34286440       0.51520631       0.33170875       0.32517900       0.32455323       0.25111290       0.26645407       0.32414628       0.28500961       0.29654210       0.62403601       2.25382959       0.29393414       0.28954497       0.28501123       2.47382903       0.29163360
           0.28735809       0.28500405       2.25426138       0.28530168       0.28501042       0.28501211       0.28500942       0.26641789       0.28500918       0.28500716       0.28502605       0.50171894       0.28500032       0.34630729       0.26636731       0.29870222       2.43663962       0.28609056       0.27816829       0.28508004
           0.28501459       0.28500866       0.25930448       0.26660297       0.31846368       0.24527049       2.47500114       0.26043955       0.26361886       0.31614643       0.26647744       0.64916536       0.26184451       2.47336555       0.26492214       0.26658931       0.33283945       0.26660515       1.59162733       0.31889362
           1.84049916       0.33978566       0.40794260       0.26412832       0.34591714       0.26782312       0.33675877       0.26782255       0.65159293       0.26729277       0.26635726       0.64957741       0.28453356       0.28501453       2.47529629       1.80400182       0.42404268       2.23199898       0.34177578       0.68089698
           0.34462882       0.29114165       0.34307194       0.34545646       0.67986824       0.34447059       0.34601348       0.34240602       0.34576405       0.44168462       0.44303761       0.34347061       0.33615454       0.25845250       0.33193264       0.34026672       0.33433762       0.33373526       0.33899650       2.47531815
           0.34206778       0.44484997       0.34378121       0.34128604       0.34324957       2.47365213       0.34428480       0.34030546       0.54359732       2.24731432       0.34531569       0.65063209       0.26564765       0.54321790       0.40219859       0.51529237       0.67603048       0.23021354       0.23050616       0.67659922
           0.22985916       0.31028095       0.23012463       1.05801751       1.87820182       0.22955002       0.52399235       0.51554994       0.51562260       0.34417915       0.26398908       0.22963356       0.22556542       0.26670999       0.34431654       0.65303816       0.34600536       0.34616720       0.40779630       0.34603576
           0.32470228       2.23413526       0.34398590       0.33397934       0.34580917       0.34253369       0.26578423       0.34560641       0.39996408       0.32855763       0.24824985       0.30849799       0.50664766       0.54358529       0.40788202       0.37356427       0.38774454       0.38156161       0.62504552       2.47451025
           0.41268265       0.34582000       0.28501100       0.44738274       0.38713362       0.33058742       0.37592027       0.62493656       0.33398108       0.28501266       0.38737123       2.22413840       2.47472145       2.47464044       0.40768548       0.33572939       0.33973178       0.62492360       0.33477203       0.38688632
           0.40777125       0.62247163       0.41658987       0.42767028       0.22934105       0.62377448       0.51017546       2.47366415       0.33683575       0.34630155       0.33333997       0.28501020       0.51534280       0.59833049       0.64884622       0.61904532       0.62479528       0.62502496       2.47391422       2.47655963
           0.62353233       0.23135022       0.63209934       2.47404719       0.23500536       0.63742316       0.64004121       2.47614018       0.33470012       0.62894553       0.23155339       0.31989802       2.47606046       0.32319681       0.78046428       0.78521468       2.47347886       0.22979370       0.77948471       2.47596090
           2.47339066       0.79108534       0.32591847       0.80329687       0.78941379       0.78045591       0.79547865       0.51535244       0.78187310       0.62491090       0.84034992       0.62451609       0.32617709       0.34141588       0.68706880       0.70392095       2.47616011       0.33304909       0.72063145       0.33865526
           2.47645962       0.41453367       0.42185113       0.23306841       0.42184622       0.42288954       0.42974259       0.33098139       0.72859276       0.27506707       0.25669651       0.42183537       0.23685771       0.43562922       0.44082354       1.50381659       0.43571091       0.25235977       0.33753097       0.44048305
           0.44254611       0.43061238       0.31433570       0.32967662       0.33216476       0.33927870       0.50407854       0.34046558       0.44252274       0.23039378       0.62851139       2.47644656       0.62991198       0.62503572       0.62426980       0.65122744       0.46153390       2.23393134       1.87887866       0.40030574
           0.51554422       2.47327540       2.47444860       1.87802679       1.87805265       1.87831674       0.22863778       0.64874445       1.87863120       2.47476399       2.47402496       0.51536952       1.88031036       1.87956131       2.47479359       1.87930254       0.54344136       1.88007053       0.32391290       1.88010572
           1.88154740       0.34458580       0.32128387       1.88458091       0.33379581       1.87931232       0.33660758       1.88223407       1.88472711       0.32930221       2.47583467       1.88514590       2.47562117       1.88371087       2.47497235       1.88434959       2.47169232       1.88319532       1.88559558       0.24000000
           1.88531972       0.62506251       0.23789019       0.34345389       0.33789045       1.88559742       1.96189274       2.47438699       2.47535156       0.30537977       2.47375932       0.31710767       0.51502901       0.65182147       0.65219132       1.96360817       1.96530464       0.34069461       1.96369429       0.34295422
           1.96370164       1.96513866       0.23422398       1.96412637       1.96185598       1.96151568       1.50266809       1.96353277       0.33134054       1.96172649       0.33394314       1.96329130       1.96180807       1.96249789       1.96121636       1.96617539       0.54358192       1.88533205       0.53691228       0.53695827
           0.54361808       0.65286572       0.51175989       1.50325841       0.40806185       0.51987378       0.54860016       0.54107052       0.59111891       0.57811075       0.30213354       0.34080969       0.60125481       0.23055381       0.55768094       0.34092765       0.27278178       0.60944527       1.52218119       0.40785696
           0.42338786       0.51545983       0.26723353       0.23639110       0.68230784       0.67429547       0.67534331       0.28502285       0.67707610       0.67805015       2.20810272       1.06702252       0.62398821       2.47422137       0.53946456       0.65278321       0.28894246       0.68323157       0.70310175       0.67970174
           0.71187115       0.67735894       0.70340877       1.96391616       1.96308570       2.47384739       0.33820042       1.96294904       0.67301997       1.96584502       0.51515487       0.53077742       2.10819777       2.29784902       0.62493150       0.71086701       1.77640203       1.02963722       1.02114571       0.34504413
           0.73385527       0.62499468       0.26795144       1.03142148       1.05184882       1.96579382       1.05413345       1.64384920       1.06321124       0.26691974       1.03429563       0.33195832       0.23373603       2.47479830       1.96138263       0.23548776       0.40775904       1.87833166       2.26387486       2.47624221
           2.47438211       2.26414424       0.65096014       2.26371116       2.47634434       0.73267459       2.25799148       0.51511261       2.26115534       0.64904440       2.26046954       0.51502368       0.23085936       0.34126389       0.22891345       0.57520856       2.25507058       0.51487938       2.01345046       1.97759597
           0.51497702       2.26118528       0.28508304       2.25634616       2.05397600       0.54336337       2.04863680       2.04964552       2.47573302       2.05140289       0.23074727       0.78524015       0.26581747       0.70212597       2.47492452       0.44950086       0.33548510       0.33034510       2.47325716       0.51492892
           2.58612667       2.35864047       0.54358783       1.88900557       0.28500891       0.54351085       2.30289238       2.47616414       2.73904910       2.30104905       1.76368863       2.29059029       0.28500719       0.23166103       2.47461512       2.69608219       2.76918894       2.67948778       0.22885279       2.78432671
           2.74892646       0.51508454       2.79454784       0.41811722       2.27247277       2.22644832       0.34581931       1.64392105       2.47423286       2.77643843       1.78936527       2.78635342       0.57246337       1.89175831       0.22578367       1.46963917       2.47388187       1.07327700       1.21936270       1.62505500
           2.47560837       0.34597206       1.09336804       0.23258508       2.47397724       1.31122447       1.30173382       1.29300220       2.18729459       2.47593641       1.36923907       0.62487433       1.22984885       0.32038136       0.51541642       1.34552633       1.34526733       1.33604335       2.47320979       0.54354068
           1.45647636       0.28548408       2.47422972       1.45578943       2.47356714       1.49676788       1.49106425       0.26665765       2.09559602       1.50785218       2.18579900       1.54562391       2.47511700       2.47356906       2.20835737       2.25379836       0.33571906       2.20487911       2.22883577       0.34241802
           2.25288996       2.23338213       0.42987224       3.12557945       2.45666841       2.37545116       3.25933762       0.51690125       0.54383166       2.23674303       2.18347214       0.51165326       0.62504466       2.21551228       0.32262191       2.23132333       2.47672218       2.22738944       2.22871086       0.24121131
           2.25395575       2.23668034       2.22808359       2.22405224       2.25853962       2.50476203       2.23000335       2.23123537       2.24750566       0.54326045       0.34591083       0.34126419       1.46771523       2.47341300       1.68260292       2.26179822       1.77815170       1.87810437       0.22793080       0.51456217
           1.61536052       1.58657740       2.47343475       0.22978825       1.59974438       0.34541806       2.47447112       1.70264973       2.47336351       1.78710270       1.80545151       2.25721399       1.79170831       2.47407269       1.75047512       2.48061012       0.26676022       1.86040178       1.86440823       1.79309915
           1.87107286       0.54365746       1.83985323       2.23112402       1.84467834       1.68076361       1.72570852       1.73405416       1.69032581       0.62137233       0.62839271       1.71472907       1.71593337       1.73729185       1.69063618       0.22680350       1.66648543       1.67453990       2.26038290       1.65338209
           2.22051007       1.87775097       1.64726538       1.67171839       1.60180962       1.61030629       1.63007734       1.60539667       1.60094776       1.59845040       1.59500739       1.63881262       1.59277225       1.64042601       1.96312248       0.62504047       1.64319107       0.62494978       0.27922261       1.85333914
           1.64670584       0.31382467       1.80544432       1.80856659       2.25801998       0.33679021       1.57431499       0.33610680       1.57513401       2.25666569       1.80323980       1.55813237       1.50365532       0.48502800       1.56102694       0.62444629       0.50927704       1.87945104       1.87637438       1.81018377
           2.47375416       2.47352299       1.73599421       0.51798350       2.47429125       1.86440287       1.76703102       1.78784190       0.33887385       1.79340627       1.86778608       0.23271534       1.87670664       2.47572954       1.85750951       1.85777519       2.47414960       1.82033498       0.34578220       2.47372535
           1.81438960       0.52044302       2.23304594       1.78429262       2.23435749       1.80187524       0.24424958       0.34181020       1.77781341       1.80209887       0.23108542       0.54356876       1.78172698       2.25189182       0.54359823       0.42320884       1.87809881       0.74448842       0.34481208       0.62991220
           1.71839162       1.75108401       0.51482840       1.53974031       1.57597786       0.33874491       1.58233929       0.65371271       2.23050185       0.51468471       1.73003204       0.24972542       1.74824214       1.74720192       0.64773424       1.76850335       1.87797314       0.23202217       0.43960524       1.77841614
           0.44561477       0.33115487       1.51937095       1.52267798       1.87836505       2.25531094       1.52496821       0.26796432       0.34420833       0.24576906       1.51630071       1.76691075       0.62488671       0.34164037       1.58596606       0.33343436       2.23268591       1.49570673       1.81100222       1.49897834
           0.33270520       0.33289611       1.49981843       1.51310590       1.47455875       1.48844911       0.34003345       1.88337065       1.46428781       0.34208237       1.46544028       1.49953025       1.49829285       1.46785007       0.43733492       1.50191285       0.29891115       1.50008855       1.50238254       0.29676488
           1.49021626       0.51506887       1.55205684       1.46728846       2.23252991       0.28275616       1.46848551       0.33335350       1.46642971       1.49968474       1.77651400       0.34356901       1.45882367       2.23365215       1.46692031       1.45702495       0.33946880       1.46772771       2.47224458       2.23515832
           1.46674385       1.53076159       2.25456171       1.46231004       1.46732944       1.46807978       1.57940522       1.47072771       1.46625933       1.46208091       2.82507874       0.34280518       0.26681485       1.46884066       0.72658051       0.62486266       0.34622785       0.26789068       1.47277846       1.46996802
           1.48003095       0.26750707       1.48891782       0.24211647       1.48371297       1.48993600       1.48255904       1.50191836       1.47291132       0.34493652       2.47321032       0.44210911       1.52173401       0.40796767       0.28501579       1.59736156       1.51787379       2.23123134       1.60334939       1.51740274
           1.52084396       0.44262215       1.54341229       1.50350759       0.33312932       0.34611582       1.54895374       0.26316864       1.55227662       0.34614782       1.52805459       0.23931116       0.23833091       1.55823827       2.47470220       1.60835132       2.47419560       2.47363020       1.54469002       2.47350795
           0.34570733       1.77418555       0.34562250       1.77612728       0.34011362       0.33106164       1.77611808       0.34063547       1.80747072       1.78718504       1.88419638       0.32821747       2.47660109       2.47699621       2.47586143       2.48258790       0.32545024       2.50134585       2.48326490       1.48964833
           2.47912651       2.73437401       2.48771098       2.47733870       1.48815962       0.33459155       0.40686225       2.48638642       1.75541480       0.28607852       0.23032669       1.77820594       1.79685908       1.78120173       1.78171639       1.51837162       1.81573877       1.49653586       2.40145725       2.47625986
           0.40924622       0.67797285       0.42055227       1.82767188       0.35643385       2.26451271       2.21812583       1.77697876       1.86357429       1.50821271       0.33363125       1.78197365       2.47997207       0.62503126       0.22976448       0.32739151       2.89769948       2.23094060       0.42802382       0.54330696
           0.78197775       0.39486509       1.53387338       1.57993491       0.26580787       0.53020474       0.48128271       0.43588976       0.33288372       0.33410495       0.40302028       2.68757148       2.63991832       2.45751636       2.26152965       1.74824331       0.26286761       2.23731915       1.79943379       0.57052695
           0.57230285       0.75262543       0.82156652       1.59346572       1.58809666       0.28344040       1.72323415       0.33497573       0.22807789       1.72521851       1.71028834       0.33085574       0.33466290       0.61362450       1.24959212       0.53586588       0.46616987       2.25899277       1.52876630       1.46898051
           1.49248290       1.53967246       1.50075679       1.55002266       0.54252121       0.54254550       0.26158562       0.52288510       1.59026475       1.91949373       1.50807505       1.48476914       1.45821613       0.33492048       2.05874789       0.64490276       2.26355324       1.49757598       0.50615149       2.26090102
           1.49548621       0.51429613       0.50536111       2.26158242       0.50647016       0.49842719       1.96192897       0.29016626       1.96207590       1.96424530       1.96400296       2.26292806       0.55111824       0.68688580       1.71837435       1.66121956       1.77406532       1.78254149       1.79476522       1.46219426
           1.43572035       0.61541603       0.59826519       0.59798107       0.71207386       2.18967853       0.40421865       2.26269481       1.53300068       0.41801125       0.41305786       1.54789140       0.41059066       0.52970616       0.43251578       0.44133239       1.15327287       1.70577137       0.33235393       0.33477616
           0.42387594       0.41721826       1.78533483       0.23038634       0.29172454       0.54622774       1.77443832       2.14664600       0.55738262       0.60901668       0.40371797       2.22539114       0.66084093       0.41122305       0.32988543       2.11072435       0.25724717       0.23375450       0.24351716       0.51881119
           0.57865040       0.45701822       1.19529270       1.04429850       2.31630997       1.75238493       2.27335714       0.28502736       0.25919558       1.84781545       1.86217036       0.32406746       0.32242301       1.61967479       1.54577090       1.47300920       0.47103252       2.93600465       1.68441826       1.56013825
           0.49717763       1.75267631       0.51018680       0.48455996       0.46167963       0.74094935       0.74990919       0.80676777       0.48200172       1.26803802       1.30369225       1.76475559       2.19067426       1.73969385       1.45954315       1.46378711       1.77481275       1.74726347       0.42525843       0.40687363
           1.60696144       1.45461417       0.57159817       0.54290613       0.50786520       0.41959579       0.41954705       0.41358892       0.28886373       0.29309971       1.68411713       1.79977274       1.43982969       1.80481717       2.20544540       1.79157141       2.49737917       2.18603291       0.49144954       0.47055601
           0.32759451       1.87855005       0.30578745       0.56674865       0.38230998       1.87978048       0.63648627       0.76467925       1.75761419       0.39989516       2.04557813       1.75373495       1.71523196       0.44438933       0.54242106       2.17505590       2.26226575       1.61800093       0.66188534       1.81064178
           0.29231576       0.32445221       0.29061105       0.54486183       0.63008049       0.47223059       0.46714518       0.55413716       0.37345775       0.28517137       0.28518710       1.51000320       1.49872872       0.48879598       0.40252753       1.75803507       1.77315836       1.44494206       1.88205301       0.33020313
           0.56859182       0.72206877       0.66024833       0.34739064       0.33307074       0.58661912       0.54074383       0.54266202       0.28527477       0.72393501       0.33309807       0.32646647       0.24554421       1.80862747       1.17962693       1.86977964       1.96143429       2.66662712       1.86776069       0.24765166
           0.36898259       0.26449143       0.26403304       0.71161920       0.39716923       0.38834120       0.25221567       0.39294104       1.84519634       2.28961823       1.81181628       1.45043267       1.45555155       1.52104267       1.56641918       1.71166930       1.32242455       0.39715384       0.30347887       1.04813002
           1.05913112       0.31463475       0.32216324       0.25227118       1.96103687       2.77692516       0.28948939       0.47728267       2.23556636       2.77222014       2.26506505       2.76651299       0.45650051       1.88160456       0.45551828       1.80841404       1.87805015       1.88230858       1.92662048       1.81586445
           0.56532796       0.79412175       0.34198980       0.33462862       0.77522045       0.76511897       0.78787784       1.96315663       1.96565513       2.26111992       2.10777117       0.84992805       0.41323122       0.40269352       1.87919284       1.87856349       2.25860085       2.26026101       0.44789465       0.41131344
           1.87551993       1.78555396       0.28564102       0.24846635       1.88382398       1.85502498       2.16557189       2.37920789       0.60152845       1.80837290       1.87732759       1.89314047       1.96492105       0.77521329       1.96458220       2.29845366       2.10726461       0.61616739       1.87679434       0.62075075
           1.81150016       1.81019139       0.47475110       1.77413653       1.81524196       1.87804371       1.87886115       1.88484630       1.81257460       1.45155558       2.52489296       2.77448034       1.53614197       1.78712328       1.87092110       1.88165102       1.76086618       1.77212745       1.66468325       1.96438224
           1.83470684       1.77482106       0.45189877       0.71610109       2.75827951       0.31596663       2.76489311       1.78193593       1.79439601       0.30206922       0.29865975       1.87933147       1.87707600       1.21406263       1.53678741       0.31894104       0.32032178       0.31003489       0.62049474       0.64400821
           1.90568107       1.93503056       1.86145848       1.86338475       1.96836438       1.88666679       1.42719787       1.28756546       1.71813798       1.82849105       1.48005247       1.25825325       1.51013385       1.55969369       0.42788380       0.46111169       0.75401271       0.29819002       0.28634965       1.47056220
           1.48225072       1.87545860       1.87190663       1.23292429       1.30940775       1.16732886       1.06588681       1.01020591       2.66939808       1.96165090       1.96263643       0.43967256       0.45078861       1.88108501       1.88082394       0.36173545       0.76525027       0.24839624       0.28466862       2.14095668
           3.24164094       0.63391748       1.80814212       0.29841260       0.62952884       0.48038021       0.77132857       0.36810049       1.96489404       1.96672077       1.80723739       0.46605370       1.80740542       0.47699122       0.48904551       0.86259118       0.66346481       2.28339192       1.96337918       2.30616397
           0.88715229       1.42372098       1.57803260       1.68491030       1.90439201       1.47423666       1.71008905       0.25923403       0.24019616       0.31057147       2.10791695       0.71978255       2.05035604       0.32908286       0.29562905       0.41578684       0.32248137       0.29272003       0.24910798       0.51943259