# File generated by Flopy version 3.9.1 on 02/09/2026 at 21:32:11.
BEGIN options
  FIXED_CELL
  PRINT_FLOWS
  SAVE_FLOWS
END options

BEGIN dimensions
  MAXBOUND  4768
END dimensions

BEGIN period  1
  1 1 9.89456059E-09
  1 2 5.42622474E-09
  1 3 5.39808027E-09
  1 4 5.35856567E-09
  1 5 5.38308318E-09
  1 6 5.41290445E-09
  1 7 7.17866656E-09
  1 8 1.00666150E-08
  1 9 1.09145253E-08
  1 10 5.35564863E-09
  1 11 5.31412347E-09
  1 12 5.37160588E-09
  1 13 1.09129636E-08
  1 14 1.11102117E-08
  1 15 1.13588642E-08
  1 16 5.38894092E-09
  1 17 7.19110241E-09
  1 18 1.09401589E-08
  1 19 6.62831310E-09
  1 20 8.78125893E-09
  1 21 5.05988172E-09
  1 22 5.23278579E-09
  1 23 8.51880960E-09
  1 24 5.23287511E-09
  1 25 5.05845179E-09
  1 26 5.43823492E-09
  1 27 1.04954167E-08
  1 28 5.40868020E-09
  1 29 1.06140166E-08
  1 30 9.61002019E-09
  1 31 1.09030531E-08
  1 32 1.09051103E-08
  1 33 1.07182802E-08
  1 34 6.63183732E-09
  1 35 1.02055915E-08
  1 36 1.17601599E-08
  1 37 1.08981894E-08
  1 38 7.44297832E-09
  1 39 7.18107129E-09
  1 40 5.27364950E-09
  1 41 1.14258066E-08
  1 42 1.10761669E-08
  1 43 7.17995408E-09
  1 44 1.14952450E-08
  1 45 4.12485803E-09
  1 46 1.09415412E-08
  1 47 5.23207847E-09
  1 48 9.02157780E-09
  1 49 5.28846966E-09
  1 50 5.42393703E-09
  1 51 8.99194354E-09
  1 52 5.36926212E-09
  1 53 5.49927941E-09
  1 54 7.17798736E-09
  1 55 5.51991808E-09
  1 56 1.14293718E-08
  1 57 6.49182807E-09
  1 58 1.14271124E-08
  1 59 8.93348672E-09
  1 60 7.18153617E-09
  1 61 1.18461549E-08
  1 62 1.11493733E-08
  1 63 5.83487714E-09
  1 64 1.15202610E-08
  1 65 1.12408437E-08
  1 66 5.49365021E-09
  1 67 1.03845552E-08
  1 68 4.13079427E-09
  1 69 5.13645757E-09
  1 70 1.16045919E-08
  1 71 5.44355293E-09
  1 72 1.01067955E-08
  1 73 5.84173308E-09
  1 74 1.16154845E-08
  1 75 5.87162913E-09
  1 76 1.15584798E-08
  1 77 6.62701914E-09
  1 78 8.52824461E-09
  1 79 7.93410880E-09
  1 80 4.85814245E-09
  1 81 5.25808712E-09
  1 82 7.89861095E-09
  1 83 7.89178506E-09
  1 84 4.97881539E-09
  1 85 7.90611024E-09
  1 86 5.23445885E-09
  1 87 8.34268849E-09
  1 88 6.63325308E-09
  1 89 5.55967590E-09
  1 90 8.28762352E-09
  1 91 7.09593113E-09
  1 92 7.90278965E-09
  1 93 5.05877994E-09
  1 94 5.83821263E-09
  1 95 7.61803638E-09
  1 96 7.89341078E-09
  1 97 6.56625265E-09
  1 98 7.89315830E-09
  1 99 7.17171798E-09
  1 100 7.88453193E-09
  1 101 7.88073668E-09
  1 102 5.52594982E-09
  1 103 7.89319206E-09
  1 104 5.54526718E-09
  1 105 7.44209410E-09
  1 106 7.65036176E-09
  1 107 7.36807510E-09
  1 108 7.38833986E-09
  1 109 9.55717100E-09
  1 110 7.75515430E-09
  1 111 7.47633973E-09
  1 112 7.69218599E-09
  1 113 7.61990116E-09
  1 114 7.44083234E-09
  1 115 8.50390694E-09
  1 116 5.85641280E-09
  1 117 7.26892838E-09
  1 118 8.26244980E-09
  1 119 5.78955467E-09
  1 120 7.35010998E-09
  1 121 7.17805439E-09
  1 122 7.44117066E-09
  1 123 7.20292552E-09
  1 124 7.09932549E-09
  1 125 4.97664081E-09
  1 126 7.01609745E-09
  1 127 6.62901899E-09
  1 128 8.64479244E-09
  1 129 6.98432963E-09
  1 130 5.49916354E-09
  1 131 7.13007469E-09
  1 132 5.62103089E-09
  1 133 6.12179882E-09
  1 134 6.55412661E-09
  1 135 7.30130101E-09
  1 136 6.47066326E-09
  1 137 5.54524991E-09
  1 138 5.67137454E-09
  1 139 5.87869767E-09
  1 140 7.11799612E-09
  1 141 6.53824884E-09
  1 142 4.11775166E-09
  1 143 5.82036175E-09
  1 144 5.53948927E-09
  1 145 7.18069749E-09
  1 146 5.53699157E-09
  1 147 5.53216480E-09
  1 148 5.52818900E-09
  1 149 6.89727407E-09
  1 150 5.75776838E-09
  1 151 5.53481146E-09
  1 152 5.64549525E-09
  1 153 5.53349914E-09
  1 154 7.63155202E-09
  1 155 8.44033667E-09
  1 156 9.55752807E-09
  1 157 8.97790461E-09
  1 158 5.24945673E-09
  1 159 8.68816364E-09
  1 160 6.62225113E-09
  1 161 8.71980993E-09
  1 162 5.76642676E-09
  1 163 5.49933578E-09
  1 164 8.74106603E-09
  1 165 5.50336168E-09
  1 166 8.72940761E-09
  1 167 8.86062805E-09
  1 168 5.64498699E-09
  1 169 6.63646044E-09
  1 170 7.44097369E-09
  1 171 8.84438249E-09
  1 172 8.76516482E-09
  1 173 5.54423503E-09
  1 174 8.82973490E-09
  1 175 4.12924039E-09
  1 176 8.76955335E-09
  1 177 8.64935330E-09
  1 178 8.65504311E-09
  1 179 5.13195481E-09
  1 180 7.44256548E-09
  1 181 6.63659391E-09
  1 182 8.72176237E-09
  1 183 6.63078079E-09
  1 184 6.63383884E-09
  1 185 8.64448557E-09
  1 186 5.67438203E-09
  1 187 8.65232781E-09
  1 188 8.63390366E-09
  1 189 8.62612189E-09
  1 190 8.72583140E-09
  1 191 8.68531446E-09
  1 192 7.43435784E-09
  1 193 5.66303131E-09
  1 194 9.14877754E-09
  1 195 5.49930970E-09
  1 196 4.87941821E-09
  1 197 8.96579475E-09
  1 198 5.64843795E-09
  1 199 8.92935480E-09
  1 200 8.96283757E-09
  1 201 8.98842102E-09
  1 202 8.91972998E-09
  1 203 5.67594640E-09
  1 204 6.62594348E-09
  1 205 9.06475376E-09
  1 206 9.04502858E-09
  1 207 7.17671239E-09
  1 208 5.83796191E-09
  1 209 7.44288180E-09
  1 210 5.38463174E-09
  1 211 7.89369256E-09
  1 212 9.00697150E-09
  1 213 7.42174402E-09
  1 214 7.18214725E-09
  1 215 9.14225171E-09
  1 216 7.18152156E-09
  1 217 9.29084035E-09
  1 218 9.24185709E-09
  1 219 5.43503845E-09
  1 220 9.29840926E-09
  1 221 7.18069905E-09
  1 222 9.22743583E-09
  1 223 9.34000421E-09
  1 224 7.17740496E-09
  1 225 7.18299814E-09
  1 226 7.89656785E-09
  1 227 9.39018340E-09
  1 228 9.36286425E-09
  1 229 5.49894100E-09
  1 230 7.18122567E-09
  1 231 7.18891278E-09
  1 232 5.43642231E-09
  1 233 7.44148706E-09
  1 234 8.95987902E-09
  1 235 6.63332685E-09
  1 236 9.31312354E-09
  1 237 7.17878652E-09
  1 238 8.94304574E-09
  1 239 7.17934653E-09
  1 240 5.23244775E-09
  1 241 9.14918734E-09
  1 242 9.19894387E-09
  1 243 9.27234204E-09
  1 244 5.49925936E-09
  1 245 9.49591283E-09
  1 246 5.30284422E-09
  1 247 8.92536911E-09
  1 248 8.70651820E-09
  1 249 9.25695124E-09
  1 250 5.44336880E-09
  1 251 9.07747122E-09
  1 252 9.36513336E-09
  1 253 6.62984425E-09
  1 254 9.58542262E-09
  1 255 9.13305282E-09
  1 256 5.40708893E-09
  1 257 8.99632321E-09
  1 258 7.33039743E-09
  1 259 9.10257089E-09
  1 260 9.07678255E-09
  1 261 9.11151395E-09
  1 262 5.43052338E-09
  1 263 5.57618380E-09
  1 264 7.17922495E-09
  1 265 5.45104633E-09
  1 266 5.34442929E-09
  1 267 9.06833625E-09
  1 268 9.07780477E-09
  1 269 9.60581852E-09
  1 270 9.11420189E-09
  1 271 5.23252937E-09
  1 272 4.23650721E-09
  1 273 9.42057442E-09
  1 274 7.44229370E-09
  1 275 9.48127950E-09
  1 276 5.44529075E-09
  1 277 9.59761579E-09
  1 278 7.17707520E-09
  1 279 9.49194446E-09
  1 280 9.48521352E-09
  1 281 7.18748247E-09
  1 282 9.42643267E-09
  1 283 7.17814603E-09
  1 284 9.51286977E-09
  1 285 5.84377199E-09
  1 286 9.56924939E-09
  1 287 7.17649119E-09
  1 288 9.58116589E-09
  1 289 5.44580360E-09
  1 290 7.18235104E-09
  1 291 7.15908606E-09
  1 292 9.59683337E-09
  1 293 9.54068557E-09
  1 294 7.17668222E-09
  1 295 9.55418896E-09
  1 296 9.54974356E-09
  1 297 9.57360082E-09
  1 298 9.57357188E-09
  1 299 7.89271997E-09
  1 300 9.58953726E-09
  1 301 5.86183237E-09
  1 302 7.18131528E-09
  1 303 5.32129005E-09
  1 304 5.27149206E-09
  1 305 9.56655331E-09
  1 306 4.07536840E-09
  1 307 9.53705282E-09
  1 308 5.42179595E-09
  1 309 5.23165096E-09
  1 310 9.60628086E-09
  1 311 5.06733064E-09
  1 312 9.61007508E-09
  1 313 9.40576744E-09
  1 314 5.26717728E-09
  1 315 5.62666581E-09
  1 316 7.44304600E-09
  1 317 5.39456162E-09
  1 318 9.58857071E-09
  1 319 5.58613193E-09
  1 320 5.46280300E-09
  1 321 5.53836163E-09
  1 322 7.18285291E-09
  1 323 5.53745466E-09
  1 324 7.17822986E-09
  1 325 7.18238193E-09
  1 326 7.18456396E-09
  1 327 5.55382763E-09
  1 328 7.44358612E-09
  1 329 4.12726968E-09
  1 330 5.52912118E-09
  1 331 5.52498542E-09
  1 332 5.21266744E-09
  1 333 5.53338402E-09
  1 334 4.13258452E-09
  1 335 5.65560759E-09
  1 336 5.52967506E-09
  1 337 7.17982183E-09
  1 338 5.52136074E-09
  1 339 7.17774030E-09
  1 340 5.17275272E-09
  1 341 5.28209471E-09
  1 342 7.17840593E-09
  1 343 5.51379089E-09
  1 344 5.84038288E-09
  1 345 5.49943427E-09
  1 346 5.49930938E-09
  1 347 7.18209782E-09
  1 348 5.52268927E-09
  1 349 5.49891738E-09
  1 350 5.36447559E-09
  1 351 5.49995574E-09
  1 352 5.15238173E-09
  1 353 5.49880431E-09
  1 354 7.18373745E-09
  1 355 5.49861168E-09
  1 356 5.44504413E-09
  1 357 5.23236806E-09
  1 358 6.64664663E-09
  1 359 6.64257159E-09
  1 360 6.57579140E-09
  1 361 5.44370594E-09
  1 362 5.03350770E-09
  1 363 6.65840617E-09
  1 364 5.43227336E-09
  1 365 5.23222330E-09
  1 366 6.60073907E-09
  1 367 6.63167552E-09
  1 368 6.63991203E-09
  1 369 5.11843674E-09
  1 370 5.43992504E-09
  1 371 6.64091981E-09
  1 372 6.62780131E-09
  1 373 6.73832484E-09
  1 374 6.57913017E-09
  1 375 7.44271801E-09
  1 376 6.72316953E-09
  1 377 6.70305484E-09
  1 378 6.62690793E-09
  1 379 7.17799907E-09
  1 380 6.70610169E-09
  1 381 6.69383942E-09
  1 382 6.63053394E-09
  1 383 7.44279435E-09
  1 384 6.66071649E-09
  1 385 6.62712201E-09
  1 386 6.62676441E-09
  1 387 6.62744290E-09
  1 388 5.44459176E-09
  1 389 6.62691621E-09
  1 390 6.62178230E-09
  1 391 6.61408331E-09
  1 392 5.23308170E-09
  1 393 6.63486710E-09
  1 394 5.53820788E-09
  1 395 5.36221613E-09
  1 396 6.73667305E-09
  1 397 7.09222786E-09
  1 398 6.38895265E-09
  1 399 6.31476185E-09
  1 400 6.60213336E-09
  1 401 6.64439971E-09
  1 402 6.62856303E-09
  1 403 5.56500466E-09
  1 404 5.44078233E-09
  1 405 5.29047238E-09
  1 406 5.91543408E-09
  1 407 7.18102002E-09
  1 408 5.54455112E-09
  1 409 5.46041571E-09
  1 410 5.28455461E-09
  1 411 5.41134095E-09
  1 412 5.83213959E-09
  1 413 5.50712423E-09
  1 414 7.17683578E-09
  1 415 5.44400802E-09
  1 416 5.43508228E-09
  1 417 5.65549101E-09
  1 418 5.44448617E-09
  1 419 7.46163586E-09
  1 420 5.29291822E-09
  1 421 9.12341647E-09
  1 422 5.40018832E-09
  1 423 5.49970392E-09
  1 424 5.44530503E-09
  1 425 5.58294015E-09
  1 426 5.40567348E-09
  1 427 5.36723006E-09
  1 428 5.41763750E-09
  1 429 5.85434034E-09
  1 430 5.40886574E-09
  1 431 5.42109669E-09
  1 432 5.83591870E-09
  1 433 6.42067214E-09
  1 434 6.62618402E-09
  1 435 7.18176942E-09
  1 436 8.80982162E-09
  1 437 5.53675389E-09
  1 438 7.44362747E-09
  1 439 5.54956985E-09
  1 440 5.91834197E-09
  1 441 5.54171330E-09
  1 442 5.22123155E-09
  1 443 5.56023581E-09
  1 444 5.54253009E-09
  1 445 5.94288136E-09
  1 446 5.56413576E-09
  1 447 5.57643335E-09
  1 448 5.57063728E-09
  1 449 5.54897777E-09
  1 450 4.12749213E-09
  1 451 4.12889377E-09
  1 452 5.56450761E-09
  1 453 5.63348225E-09
  1 454 5.14713702E-09
  1 455 5.65370397E-09
  1 456 5.40444160E-09
  1 457 5.65459140E-09
  1 458 5.65479962E-09
  1 459 5.62592442E-09
  1 460 7.18184525E-09
  1 461 5.60588013E-09
  1 462 4.13062025E-09
  1 463 5.45473202E-09
  1 464 5.61719651E-09
  1 465 5.60390434E-09
  1 466 7.17755097E-09
  1 467 5.59624789E-09
  1 468 5.61509296E-09
  1 469 7.89311747E-09
  1 470 7.44223399E-09
  1 471 5.59549998E-09
  1 472 5.84587765E-09
  1 473 6.24874455E-09
  1 474 7.89535683E-09
  1 475 5.58078231E-09
  1 476 5.23229030E-09
  1 477 5.92270053E-09
  1 478 5.05493392E-09
  1 479 5.06022418E-09
  1 480 5.91072089E-09
  1 481 5.05599695E-09
  1 482 5.26665328E-09
  1 483 5.05727483E-09
  1 484 7.23359152E-09
  1 485 8.91219902E-09
  1 486 5.05592300E-09
  1 487 5.23101889E-09
  1 488 5.23166788E-09
  1 489 5.23175873E-09
  1 490 5.48246232E-09
  1 491 5.28195285E-09
  1 492 5.05803542E-09
  1 493 5.02945254E-09
  1 494 5.44495121E-09
  1 495 5.45737407E-09
  1 496 5.86759162E-09
  1 497 5.53097759E-09
  1 498 5.56335486E-09
  1 499 5.49953107E-09
  1 500 5.50366437E-09
  1 501 5.31208785E-09
  1 502 7.44383028E-09
  1 503 5.44855353E-09
  1 504 5.35387433E-09
  1 505 5.58942559E-09
  1 506 5.42811170E-09
  1 507 5.16256644E-09
  1 508 5.49614034E-09
  1 509 6.53752944E-09
  1 510 5.32867438E-09
  1 511 5.12269068E-09
  1 512 5.26352396E-09
  1 513 5.23214430E-09
  1 514 7.89313590E-09
  1 515 5.49963252E-09
  1 516 5.74994356E-09
  1 517 6.36020359E-09
  1 518 6.02915859E-09
  1 519 6.57313397E-09
  1 520 7.17975113E-09
  1 521 5.29049614E-09
  1 522 5.57090247E-09
  1 523 6.62705542E-09
  1 524 6.96657404E-09
  1 525 4.63371118E-09
  1 526 4.08083319E-09
  1 527 4.48957450E-09
  1 528 6.57095328E-09
  1 529 4.07926389E-09
  1 530 6.62655063E-09
  1 531 5.38017483E-09
  1 532 7.44195778E-09
  1 533 7.18028081E-09
  1 534 7.18008674E-09
  1 535 5.49940202E-09
  1 536 4.08399097E-09
  1 537 5.40259290E-09
  1 538 6.57181902E-09
  1 539 4.08195684E-09
  1 540 4.58468029E-09
  1 541 5.49949783E-09
  1 542 6.57333487E-09
  1 543 5.17988580E-09
  1 544 5.40568450E-09
  1 545 5.05210547E-09
  1 546 6.57360890E-09
  1 547 5.23142678E-09
  1 548 7.17759039E-09
  1 549 4.10813401E-09
  1 550 5.53331796E-09
  1 551 4.08571296E-09
  1 552 6.62727314E-09
  1 553 5.23123769E-09
  1 554 6.47381022E-09
  1 555 5.82922385E-09
  1 556 6.56774468E-09
  1 557 6.57712537E-09
  1 558 6.57789991E-09
  1 559 7.17821525E-09
  1 560 7.18509546E-09
  1 561 6.57380169E-09
  1 562 5.06568940E-09
  1 563 6.62152529E-09
  1 564 7.17855353E-09
  1 565 5.08336651E-09
  1 566 6.64884721E-09
  1 567 6.68979951E-09
  1 568 7.18400733E-09
  1 569 4.08332140E-09
  1 570 6.59857925E-09
  1 571 5.06876547E-09
  1 572 5.29518236E-09
  1 573 7.18377182E-09
  1 574 5.30777143E-09
  1 575 7.19159130E-09
  1 576 7.19699467E-09
  1 577 7.17711361E-09
  1 578 5.05933316E-09
  1 579 7.19981369E-09
  1 580 7.18350914E-09
  1 581 7.17689144E-09
  1 582 7.22722037E-09
  1 583 5.31669934E-09
  1 584 7.26158214E-09
  1 585 7.23724826E-09
  1 586 6.80000612E-09
  1 587 7.25997739E-09
  1 588 5.23194136E-09
  1 589 7.20579388E-09
  1 590 6.57268797E-09
  1 591 7.34158021E-09
  1 592 6.57774949E-09
  1 593 5.31899676E-09
  1 594 5.41554757E-09
  1 595 6.16834435E-09
  1 596 6.26529090E-09
  1 597 7.18403518E-09
  1 598 5.34916233E-09
  1 599 6.37886114E-09
  1 600 5.39355067E-09
  1 601 7.18482937E-09
  1 602 4.07274900E-09
  1 603 4.07288573E-09
  1 604 5.07565404E-09
  1 605 4.07442566E-09
  1 606 4.07024233E-09
  1 607 4.11022141E-09
  1 608 5.33777200E-09
  1 609 6.43374777E-09
  1 610 5.18292424E-09
  1 611 5.14221714E-09
  1 612 4.07107916E-09
  1 613 5.08976596E-09
  1 614 4.11761778E-09
  1 615 4.12330398E-09
  1 616 7.27602205E-09
  1 617 4.10228327E-09
  1 618 5.13209354E-09
  1 619 5.37388802E-09
  1 620 4.13732293E-09
  1 621 4.13357136E-09
  1 622 4.12105693E-09
  1 623 5.27940348E-09
  1 624 5.33347928E-09
  1 625 5.65528409E-09
  1 626 5.39592006E-09
  1 627 4.66066572E-09
  1 628 5.57512773E-09
  1 629 4.14971203E-09
  1 630 5.06265415E-09
  1 631 5.79505779E-09
  1 632 7.18482130E-09
  1 633 6.62377703E-09
  1 634 6.57120470E-09
  1 635 6.59321214E-09
  1 636 5.85136141E-09
  1 637 4.30274828E-09
  1 638 7.44379921E-09
  1 639 9.57190291E-09
  1 640 4.29539709E-09
  1 641 5.23188644E-09
  1 642 7.17660172E-09
  1 643 7.17959262E-09
  1 644 9.55553366E-09
  1 645 9.55540182E-09
  1 646 9.56239869E-09
  1 647 5.04902223E-09
  1 648 5.82849197E-09
  1 649 9.56448007E-09
  1 650 7.18040567E-09
  1 651 7.17850777E-09
  1 652 5.23216519E-09
  1 653 9.57024393E-09
  1 654 9.57153551E-09
  1 655 7.18046675E-09
  1 656 9.57035281E-09
  1 657 7.89404752E-09
  1 658 9.57549984E-09
  1 659 5.30918359E-09
  1 660 9.57032935E-09
  1 661 9.57413109E-09
  1 662 5.46614605E-09
  1 663 5.29987081E-09
  1 664 9.58486058E-09
  1 665 5.35120779E-09
  1 666 9.57641209E-09
  1 667 5.37849491E-09
  1 668 9.56747416E-09
  1 669 9.57255869E-09
  1 670 5.33041006E-09
  1 671 7.18319985E-09
  1 672 9.57220152E-09
  1 673 7.18261715E-09
  1 674 9.58371736E-09
  1 675 7.18092879E-09
  1 676 9.57547259E-09
  1 677 7.17382372E-09
  1 678 9.58658763E-09
  1 679 9.56533400E-09
  1 680 5.10002272E-09
  1 681 9.58077585E-09
  1 682 6.57662175E-09
  1 683 5.09340365E-09
  1 684 5.44031547E-09
  1 685 5.38765321E-09
  1 686 9.57339179E-09
  1 687 9.54276652E-09
  1 688 7.17943438E-09
  1 689 7.18191312E-09
  1 690 5.25550075E-09
  1 691 7.17783183E-09
  1 692 5.28629201E-09
  1 693 5.23269839E-09
  1 694 5.85683415E-09
  1 695 5.86027083E-09
  1 696 9.55446652E-09
  1 697 9.56784961E-09
  1 698 5.41156872E-09
  1 699 9.55419216E-09
  1 700 5.57074090E-09
  1 701 9.55326211E-09
  1 702 9.56273858E-09
  1 703 5.08030317E-09
  1 704 9.55617523E-09
  1 705 9.54201089E-09
  1 706 9.54015070E-09
  1 707 7.27658394E-09
  1 708 9.55288287E-09
  1 709 5.65514884E-09
  1 710 9.53957383E-09
  1 711 5.65575257E-09
  1 712 9.55136607E-09
  1 713 9.51017936E-09
  1 714 9.54308440E-09
  1 715 9.53750542E-09
  1 716 9.57330677E-09
  1 717 7.89299802E-09
  1 718 9.56727257E-09
  1 719 4.92366908E-09
  1 720 4.93809466E-09
  1 721 7.89308893E-09
  1 722 5.86968165E-09
  1 723 8.14957472E-09
  1 724 7.27697889E-09
  1 725 5.49985937E-09
  1 726 4.79134980E-09
  1 727 4.97371348E-09
  1 728 4.95200775E-09
  1 729 5.37027323E-09
  1 730 5.27455669E-09
  1 731 5.24742454E-09
  1 732 5.55430022E-09
  1 733 5.43540265E-09
  1 734 5.06373830E-09
  1 735 5.06420234E-09
  1 736 5.57399646E-09
  1 737 5.17929576E-09
  1 738 5.53130701E-09
  1 739 6.59051610E-09
  1 740 5.49959847E-09
  1 741 5.53692433E-09
  1 742 5.23202193E-09
  1 743 5.44729002E-09
  1 744 5.08835818E-09
  1 745 5.91916826E-09
  1 746 5.88849186E-09
  1 747 5.89477125E-09
  1 748 6.62451005E-09
  1 749 5.92488308E-09
  1 750 5.89673697E-09
  1 751 7.44232313E-09
  1 752 7.25511457E-09
  1 753 5.63336890E-09
  1 754 7.17899769E-09
  1 755 4.93642537E-09
  1 756 5.86572555E-09
  1 757 6.69985603E-09
  1 758 5.99264607E-09
  1 759 5.93115300E-09
  1 760 5.88974367E-09
  1 761 6.00520986E-09
  1 762 5.86800218E-09
  1 763 5.99639719E-09
  1 764 9.55253074E-09
  1 765 9.51554961E-09
  1 766 7.17886476E-09
  1 767 5.37596455E-09
  1 768 9.51491798E-09
  1 769 5.96670802E-09
  1 770 9.56771377E-09
  1 771 5.23232395E-09
  1 772 4.94721951E-09
  1 773 9.62474313E-09
  1 774 9.63273606E-09
  1 775 6.57865341E-09
  1 776 5.98189994E-09
  1 777 5.69051617E-09
  1 778 7.24157718E-09
  1 779 7.19117662E-09
  1 780 5.48606896E-09
  1 781 6.18483385E-09
  1 782 6.56847292E-09
  1 783 5.41271498E-09
  1 784 7.21476563E-09
  1 785 7.22689033E-09
  1 786 9.56980113E-09
  1 787 7.22883352E-09
  1 788 7.53145539E-09
  1 789 7.25486440E-09
  1 790 5.44590171E-09
  1 791 7.21030262E-09
  1 792 5.34226978E-09
  1 793 5.07843370E-09
  1 794 7.18049451E-09
  1 795 9.53824893E-09
  1 796 5.08500862E-09
  1 797 5.49947999E-09
  1 798 9.56435546E-09
  1 799 9.63513591E-09
  1 800 7.18427793E-09
  1 801 7.17940888E-09
  1 802 9.63468214E-09
  1 803 5.84855268E-09
  1 804 9.63675583E-09
  1 805 7.18454925E-09
  1 806 6.46184130E-09
  1 807 9.65893958E-09
  1 808 5.23240182E-09
  1 809 9.64702030E-09
  1 810 5.83125253E-09
  1 811 9.64929761E-09
  1 812 5.23256333E-09
  1 813 5.06264957E-09
  1 814 5.41735209E-09
  1 815 5.05255682E-09
  1 816 5.59167662E-09
  1 817 9.67949331E-09
  1 818 5.23281996E-09
  1 819 9.74523167E-09
  1 820 9.77631284E-09
  1 821 5.23264696E-09
  1 822 9.64773712E-09
  1 823 6.64932691E-09
  1 824 9.67740755E-09
  1 825 9.89637534E-09
  1 826 7.89460871E-09
  1 827 9.90792815E-09
  1 828 9.89928020E-09
  1 829 7.18293213E-09
  1 830 9.90666638E-09
  1 831 5.06180044E-09
  1 832 6.75779159E-09
  1 833 5.44665011E-09
  1 834 6.03664634E-09
  1 835 7.18137824E-09
  1 836 4.20942711E-09
  1 837 5.36007112E-09
  1 838 5.33493987E-09
  1 839 7.17656296E-09
  1 840 5.23273251E-09
  1 841 9.82423458E-09
  1 842 9.90733639E-09
  1 843 7.89304686E-09
  1 844 9.91603551E-09
  1 845 6.62184753E-09
  1 846 7.89342424E-09
  1 847 9.91220022E-09
  1 848 7.18420577E-09
  1 849 9.81079097E-09
  1 850 9.93045967E-09
  1 851 5.68773084E-09
  1 852 9.79440139E-09
  1 853 6.62458837E-09
  1 854 5.06757854E-09
  1 855 7.18000689E-09
  1 856 9.85521404E-09
  1 857 9.87978974E-09
  1 858 9.91055264E-09
  1 859 5.05324525E-09
  1 860 9.86717429E-09
  1 861 9.80419177E-09
  1 862 5.23261292E-09
  1 863 9.80440545E-09
  1 864 5.52927661E-09
  1 865 8.88428542E-09
  1 866 7.44101874E-09
  1 867 5.50872416E-09
  1 868 7.73376569E-09
  1 869 7.18034719E-09
  1 870 9.79860486E-09
  1 871 5.63860878E-09
  1 872 9.78613869E-09
  1 873 7.93320580E-09
  1 874 9.92170300E-09
  1 875 5.02167950E-09
  1 876 7.41454004E-09
  1 877 7.17814316E-09
  1 878 7.26069366E-09
  1 879 7.39228461E-09
  1 880 7.73250482E-09
  1 881 7.18260491E-09
  1 882 5.52359017E-09
  1 883 7.28400264E-09
  1 884 5.07356491E-09
  1 885 7.17838607E-09
  1 886 7.43728090E-09
  1 887 7.43415277E-09
  1 888 7.43214831E-09
  1 889 7.44669581E-09
  1 890 7.18346829E-09
  1 891 7.46084604E-09
  1 892 6.57474909E-09
  1 893 7.39893004E-09
  1 894 5.29789319E-09
  1 895 5.23181200E-09
  1 896 7.46697284E-09
  1 897 7.45238626E-09
  1 898 7.45347207E-09
  1 899 7.17644386E-09
  1 900 7.89341184E-09
  1 901 7.70747274E-09
  1 902 6.57875840E-09
  1 903 7.17903113E-09
  1 904 6.94209375E-09
  1 905 7.17733633E-09
  1 906 7.71677741E-09
  1 907 7.71583125E-09
  1 908 5.44428458E-09
  1 909 7.45151148E-09
  1 910 7.71861966E-09
  1 911 7.47879864E-09
  1 912 7.72149162E-09
  1 913 7.18130346E-09
  1 914 7.17734959E-09
  1 915 7.44048652E-09
  1 916 7.44299036E-09
  1 917 5.36323671E-09
  1 918 7.44171663E-09
  1 919 7.44157108E-09
  1 920 5.43063880E-09
  1 921 7.44263918E-09
  1 922 7.44374379E-09
  1 923 4.09989071E-09
  1 924 7.98018291E-09
  1 925 7.13847904E-09
  1 926 7.46947480E-09
  1 927 7.93408864E-09
  1 928 5.23156252E-09
  1 929 7.89041659E-09
  1 930 7.44188314E-09
  1 931 7.44173567E-09
  1 932 5.23184513E-09
  1 933 6.57482346E-09
  1 934 7.44273313E-09
  1 935 5.30453784E-09
  1 936 7.44349625E-09
  1 937 7.18563724E-09
  1 938 7.44294872E-09
  1 939 7.44276631E-09
  1 940 5.10363661E-09
  1 941 7.44272351E-09
  1 942 7.44179297E-09
  1 943 7.44323663E-09
  1 944 7.44231689E-09
  1 945 7.44310895E-09
  1 946 7.25860071E-09
  1 947 7.44333129E-09
  1 948 7.44202260E-09
  1 949 7.44223501E-09
  1 950 7.89461739E-09
  1 951 5.51617261E-09
  1 952 5.57404919E-09
  1 953 6.83828952E-09
  1 954 7.17695541E-09
  1 955 7.59305852E-09
  1 956 9.64500168E-09
  1 957 5.66531884E-09
  1 958 8.94146439E-09
  1 959 5.04904285E-09
  1 960 5.23173394E-09
  1 961 7.72524158E-09
  1 962 7.72549982E-09
  1 963 7.17700246E-09
  1 964 5.05632544E-09
  1 965 7.72759685E-09
  1 966 5.50121560E-09
  1 967 7.17963712E-09
  1 968 7.73626059E-09
  1 969 7.17682319E-09
  1 970 7.74541381E-09
  1 971 7.74523853E-09
  1 972 7.44299391E-09
  1 973 7.74743771E-09
  1 974 7.17862963E-09
  1 975 7.66310932E-09
  1 976 7.19469473E-09
  1 977 5.44478440E-09
  1 978 7.77219569E-09
  1 979 7.77666663E-09
  1 980 7.73502316E-09
  1 981 7.78259004E-09
  1 982 7.89238034E-09
  1 983 7.75340880E-09
  1 984 7.44318438E-09
  1 985 9.12187137E-09
  1 986 7.58451578E-09
  1 987 7.62684642E-09
  1 988 7.63809510E-09
  1 989 7.59073899E-09
  1 990 6.56494629E-09
  1 991 6.58792982E-09
  1 992 7.61393910E-09
  1 993 7.62742088E-09
  1 994 7.63894326E-09
  1 995 7.59935002E-09
  1 996 5.03420096E-09
  1 997 7.56630727E-09
  1 998 7.58363008E-09
  1 999 7.44327404E-09
  1 1000 7.54878534E-09
  1 1001 7.44128903E-09
  1 1002 8.88775140E-09
  1 1003 7.55078253E-09
  1 1004 7.56979651E-09
  1 1005 7.48881060E-09
  1 1006 7.49447271E-09
  1 1007 7.52437855E-09
  1 1008 7.47977825E-09
  1 1009 7.48111772E-09
  1 1010 7.47176636E-09
  1 1011 7.46392287E-09
  1 1012 7.53780868E-09
  1 1013 7.46860370E-09
  1 1014 7.52770175E-09
  1 1015 9.54508339E-09
  1 1016 6.57216768E-09
  1 1017 7.52712494E-09
  1 1018 6.57009073E-09
  1 1019 5.19373077E-09
  1 1020 8.67409236E-09
  1 1021 7.53559778E-09
  1 1022 5.27665540E-09
  1 1023 8.80210392E-09
  1 1024 9.01409340E-09
  1 1025 7.44306381E-09
  1 1026 4.08689941E-09
  1 1027 7.42608132E-09
  1 1028 4.08516144E-09
  1 1029 7.45338270E-09
  1 1030 7.44294739E-09
  1 1031 8.80876910E-09
  1 1032 7.40137174E-09
  1 1033 7.30477106E-09
  1 1034 8.30171734E-09
  1 1035 7.72298015E-09
  1 1036 6.57620247E-09
  1 1037 5.23208626E-09
  1 1038 7.78480297E-09
  1 1039 7.80252026E-09
  1 1040 7.72129468E-09
  1 1041 7.17780922E-09
  1 1042 7.17722490E-09
  1 1043 7.65532156E-09
  1 1044 5.23121447E-09
  1 1045 7.17918870E-09
  1 1046 7.79692645E-09
  1 1047 7.67284118E-09
  1 1048 7.69165204E-09
  1 1049 5.38030639E-09
  1 1050 7.69337477E-09
  1 1051 7.79913202E-09
  1 1052 5.07321757E-09
  1 1053 7.78993658E-09
  1 1054 7.18327284E-09
  1 1055 7.79330248E-09
  1 1056 7.79141680E-09
  1 1057 7.17881456E-09
  1 1058 7.73159804E-09
  1 1059 5.57436799E-09
  1 1060 7.17774551E-09
  1 1061 7.72447121E-09
  1 1062 5.23112940E-09
  1 1063 7.44372517E-09
  1 1064 7.68451040E-09
  1 1065 7.44384205E-09
  1 1066 7.70689910E-09
  1 1067 5.11219395E-09
  1 1068 5.41974909E-09
  1 1069 7.67416371E-09
  1 1070 7.70247004E-09
  1 1071 5.06654309E-09
  1 1072 7.89264402E-09
  1 1073 7.68797919E-09
  1 1074 7.44258592E-09
  1 1075 7.89313429E-09
  1 1076 5.53894153E-09
  1 1077 9.55577124E-09
  1 1078 6.54510715E-09
  1 1079 5.47123199E-09
  1 1080 6.59936356E-09
  1 1081 7.61446662E-09
  1 1082 7.65287344E-09
  1 1083 5.23290933E-09
  1 1084 7.39996651E-09
  1 1085 7.43721514E-09
  1 1086 5.39163649E-09
  1 1087 7.42818046E-09
  1 1088 5.87537671E-09
  1 1089 7.44344585E-09
  1 1090 5.23319710E-09
  1 1091 7.62923220E-09
  1 1092 5.12575337E-09
  1 1093 7.66238438E-09
  1 1094 7.65506674E-09
  1 1095 5.81911729E-09
  1 1096 7.67068466E-09
  1 1097 9.55385663E-09
  1 1098 5.07106580E-09
  1 1099 4.12297670E-09
  1 1100 7.67790958E-09
  1 1101 4.13200574E-09
  1 1102 5.65331052E-09
  1 1103 7.31523650E-09
  1 1104 7.32840280E-09
  1 1105 9.56167095E-09
  1 1106 7.44283396E-09
  1 1107 7.34437698E-09
  1 1108 5.16857743E-09
  1 1109 5.47519571E-09
  1 1110 5.11574879E-09
  1 1111 7.31220287E-09
  1 1112 7.68199966E-09
  1 1113 6.57330758E-09
  1 1114 5.57234302E-09
  1 1115 7.47466260E-09
  1 1116 4.09217811E-09
  1 1117 7.44369247E-09
  1 1118 7.27751639E-09
  1 1119 9.58271428E-09
  1 1120 7.27784329E-09
  1 1121 5.65415486E-09
  1 1122 5.34674828E-09
  1 1123 7.27492251E-09
  1 1124 7.31796789E-09
  1 1125 7.18876528E-09
  1 1126 7.25302486E-09
  1 1127 5.55456007E-09
  1 1128 9.57046715E-09
  1 1129 7.15834785E-09
  1 1130 5.57241589E-09
  1 1131 7.17441097E-09
  1 1132 7.26691399E-09
  1 1133 7.32034135E-09
  1 1134 7.13931405E-09
  1 1135 4.11198616E-09
  1 1136 7.26764149E-09
  1 1137 5.23987031E-09
  1 1138 7.24288179E-09
  1 1139 7.21447787E-09
  1 1140 5.23258748E-09
  1 1141 7.23671445E-09
  1 1142 5.23248162E-09
  1 1143 6.45581017E-09
  1 1144 7.11542924E-09
  1 1145 7.44365990E-09
  1 1146 5.19999129E-09
  1 1147 7.03212871E-09
  1 1148 5.65452921E-09
  1 1149 7.08574420E-09
  1 1150 7.22023269E-09
  1 1151 5.68364821E-09
  1 1152 5.54473441E-09
  1 1153 7.14703222E-09
  1 1154 7.44378395E-09
  1 1155 7.04771506E-09
  1 1156 7.08539759E-09
  1 1157 5.57777373E-09
  1 1158 7.00601755E-09
  1 1159 7.17403962E-09
  1 1160 7.44392789E-09
  1 1161 6.92140011E-09
  1 1162 6.50124293E-09
  1 1163 7.44277264E-09
  1 1164 7.02214110E-09
  1 1165 6.96538856E-09
  1 1166 6.88329197E-09
  1 1167 7.42474169E-09
  1 1168 6.92255951E-09
  1 1169 6.86333408E-09
  1 1170 7.05267838E-09
  1 1171 7.80868865E-09
  1 1172 5.54918533E-09
  1 1173 5.44542307E-09
  1 1174 6.89762633E-09
  1 1175 6.41921306E-09
  1 1176 6.57619890E-09
  1 1177 5.51855203E-09
  1 1178 5.42724348E-09
  1 1179 6.82685892E-09
  1 1180 6.94450632E-09
  1 1181 6.76482185E-09
  1 1182 5.40473870E-09
  1 1183 6.72761516E-09
  1 1184 5.10585149E-09
  1 1185 6.73870673E-09
  1 1186 6.71262826E-09
  1 1187 6.72530832E-09
  1 1188 7.27847828E-09
  1 1189 6.81288537E-09
  1 1190 5.54844592E-09
  1 1191 7.18165582E-09
  1 1192 4.12504473E-09
  1 1193 7.36556543E-09
  1 1194 5.49973861E-09
  1 1195 6.62583859E-09
  1 1196 7.47532124E-09
  1 1197 6.61198351E-09
  1 1198 7.44355617E-09
  1 1199 7.47980304E-09
  1 1200 6.62207484E-09
  1 1201 6.57439778E-09
  1 1202 4.12623142E-09
  1 1203 6.47467662E-09
  1 1204 6.58494529E-09
  1 1205 5.65547835E-09
  1 1206 5.56816893E-09
  1 1207 6.44719758E-09
  1 1208 5.15785120E-09
  1 1209 6.44097837E-09
  1 1210 5.51112382E-09
  1 1211 6.53503810E-09
  1 1212 5.09761521E-09
  1 1213 5.09457087E-09
  1 1214 6.41216759E-09
  1 1215 7.18024607E-09
  1 1216 6.08782349E-09
  1 1217 7.17894367E-09
  1 1218 7.17750430E-09
  1 1219 6.44668455E-09
  1 1220 7.17719515E-09
  1 1221 5.58021803E-09
  1 1222 5.68004499E-09
  1 1223 5.58605069E-09
  1 1224 5.68672928E-09
  1 1225 5.57597389E-09
  1 1226 5.33967485E-09
  1 1227 5.67829369E-09
  1 1228 5.57538173E-09
  1 1229 5.55521907E-09
  1 1230 5.69819239E-09
  1 1231 5.62570451E-09
  1 1232 5.32586021E-09
  1 1233 7.18522165E-09
  1 1234 7.18613929E-09
  1 1235 7.18324713E-09
  1 1236 7.19920105E-09
  1 1237 4.07298260E-09
  1 1238 7.24212675E-09
  1 1239 7.20165610E-09
  1 1240 6.68617683E-09
  1 1241 7.19111547E-09
  1 1242 7.67271458E-09
  1 1243 7.21157391E-09
  1 1244 7.18727205E-09
  1 1245 7.21635017E-09
  1 1246 5.64993420E-09
  1 1247 5.49929053E-09
  1 1248 7.20792610E-09
  1 1249 5.65466622E-09
  1 1250 6.68292013E-09
  1 1251 5.05768494E-09
  1 1252 5.67649886E-09
  1 1253 5.64856093E-09
  1 1254 5.66962766E-09
  1 1255 5.66103817E-09
  1 1256 7.33716267E-09
  1 1257 5.64883997E-09
  1 1258 7.28810665E-09
  1 1259 7.00308719E-09
  1 1260 7.18429923E-09
  1 1261 5.50600396E-09
  1 1262 5.87554664E-09
  1 1263 4.07166212E-09
  1 1264 5.57398379E-09
  1 1265 4.31773083E-09
  1 1266 9.63484767E-09
  1 1267 7.44218487E-09
  1 1268 5.67479172E-09
  1 1269 5.55473557E-09
  1 1270 7.30586338E-09
  1 1271 6.58352422E-09
  1 1272 5.67495115E-09
  1 1273 7.19344659E-09
  1 1274 6.57024505E-09
  1 1275 5.05364796E-09
  1 1276 5.32384697E-09
  1 1277 7.93328678E-09
  1 1278 7.44330081E-09
  1 1279 4.08942299E-09
  1 1280 7.89279145E-09
  1 1281 7.19180479E-09
  1 1282 4.19684152E-09
  1 1283 7.36708774E-09
  1 1284 7.43064703E-09
  1 1285 5.39714283E-09
  1 1286 5.23073229E-09
  1 1287 5.23734916E-09