# File generated by Flopy version 3.9.1 on 02/09/2026 at 21:32:11.
BEGIN options
  BUDGET  FILEOUT  triangle_caseA.cbc
  HEAD  FILEOUT  triangle_caseA.hds
END options

BEGIN period  1
  SAVE  HEAD  LAST
  SAVE  BUDGET  LAST
  PRINT  BUDGET  LAST
END period  1

