# File generated by Flopy version 3.9.1 on 02/09/2026 at 21:32:11.
BEGIN options
  SAVE_FLOWS
END options

BEGIN packages
  DISV6  triangle_caseA.disv  disv
  IC6  triangle_caseA.ic  ic
  CHD6  triangle_caseA.chd  chd
  NPF6  triangle_caseA.npf  npf
  WEL6  triangle_caseA.wel  well_package
  RCH6  triangle_caseA.rch  rch
  EVT6  triangle_caseA.evt  evt
  OC6  triangle_caseA.oc  oc
END packages

