# File generated by Flopy version 3.9.1 on 02/10/2026 at 20:59:31.
BEGIN options
  SAVE_FLOWS
END options

BEGIN packages
  disv6  triangle_caseB.disv  disv
  ic6  triangle_caseB.ic  ic
  chd6  triangle_caseB.chd  chd
  npf6  triangle_caseB.npf  npf
  wel6  triangle_caseB.wel  well_package
  rch6  triangle_caseB.rch  rch
  evt6  triangle_caseB.evt  evt
  oc6  triangle_caseB.oc  oc
END packages

