# File generated by Flopy version 3.9.1 on 02/10/2026 at 20:59:33.
BEGIN options
  SAVE_FLOWS
END options

BEGIN dimensions
  MAXBOUND  29707
END dimensions

BEGIN period  1
  2 473 -0.00000000E+00
  2 482 -0.00000000E+00
  2 489 -0.00000000E+00
  2 16657 -7.79105561E-03
  2 18596 -1.86985335E-02
  2 18746 -0.00000000E+00
  2 21969 -0.00000000E+00
  2 22088 -0.00000000E+00
  2 22150 -0.00000000E+00
  2 22151 -1.04400145E-01
  2 22639 -7.79105561E-03
  2 22780 -2.02567446E-02
  2 22781 -4.51881225E-02
  2 23503 -0.00000000E+00
  2 23529 -0.00000000E+00
  2 23752 -0.00000000E+00
  2 23790 -0.00000000E+00
  2 23831 -3.11642224E-03
  2 23832 -6.23284448E-02
  2 23856 -0.00000000E+00
  2 23871 -0.00000000E+00
  2 24149 -0.00000000E+00
  2 24183 -0.00000000E+00
  2 24349 -0.00000000E+00
  2 24350 -0.00000000E+00
  2 24470 -0.00000000E+00
  2 24719 -4.67463336E-03
  2 24815 -4.67463336E-03
  2 24816 -0.00000000E+00
  2 24827 -1.55821112E-03
  2 24828 -0.00000000E+00
  2 24829 -6.51332249E-01
  2 24830 -0.00000000E+00
  2 24831 -0.00000000E+00
  2 24832 -3.11642224E-02
  2 24833 -1.24656890E-02
  2 24835 -2.11916712E-01
  2 24836 -1.52704690E-01
  2 24837 -6.23284448E-03
  2 24839 -2.64895891E-02
  2 24840 -1.24656890E-02
  2 24841 -1.71403223E-02
  2 24843 -0.00000000E+00
  2 24844 -0.00000000E+00
  2 24845 -0.00000000E+00
  2 24846 -1.55821112E-03
  2 24847 -0.00000000E+00
  2 24849 -1.31201376E+00
  2 24851 -1.55821112E-03
  2 24852 -1.24656890E-02
  2 24853 -0.00000000E+00
  2 24854 -3.11642224E-03
  2 24856 -0.00000000E+00
  2 24857 -6.23284448E-03
  2 24858 -0.00000000E+00
  2 24859 -0.00000000E+00
  2 24861 -4.98627559E-02
  2 24865 -0.00000000E+00
  2 24866 -9.34926673E-03
  2 24867 -0.00000000E+00
  2 24868 -6.23284448E-03
  2 24869 -2.49313779E-02
  2 24870 -0.00000000E+00
  2 24877 -4.67463336E-03
  2 24878 -0.00000000E+00
  2 24879 -3.58388558E-02
  2 24881 -2.80478002E-02
  2 24883 -0.00000000E+00
  2 24889 -1.71403223E-02
  2 24890 -0.00000000E+00
  2 24891 -0.00000000E+00
  2 24892 -0.00000000E+00
  2 24894 -0.00000000E+00
  2 24901 -0.00000000E+00
  2 24902 -1.55821112E-03
  2 24911 -3.11642224E-03
  2 25025 -1.55821112E-03
  2 25096 -0.00000000E+00
  2 25097 -1.55821112E-03
  2 25098 -0.00000000E+00
  2 25099 -0.00000000E+00
  2 25102 -3.11642224E-03
  2 25103 -0.00000000E+00
  2 25104 -2.33731668E-02
  2 25105 -0.00000000E+00
  2 25106 -4.67463336E-03
  2 25107 -1.55821112E-03
  2 25123 -0.00000000E+00
  2 25125 -0.00000000E+00
  2 25126 -0.00000000E+00
  2 25127 -0.00000000E+00
  2 25132 -0.00000000E+00
  2 25133 -0.00000000E+00
  2 25134 -0.00000000E+00
  2 25135 -0.00000000E+00
  2 25136 -7.79105561E-02
  2 25137 -0.00000000E+00
  2 25138 -4.67463336E-03
  2 25139 -0.00000000E+00
  2 25140 -1.55821112E-03
  2 25141 -3.11642224E-03
  2 25142 -1.55821112E-03
  2 25143 -0.00000000E+00
  2 25144 -0.00000000E+00
  2 25145 -0.00000000E+00
  2 25225 -0.00000000E+00
  2 25226 -0.00000000E+00
  2 25227 -0.00000000E+00
  2 25228 -0.00000000E+00
  2 25229 -0.00000000E+00
  2 25230 -0.00000000E+00
  2 25231 -0.00000000E+00
  2 54 -0.00000000E+00
  2 100 -0.00000000E+00
  2 1936 -6.88519820E-04
  2 2030 -0.00000000E+00
  2 2217 -6.88519820E-04
  2 2231 -8.26223783E-03
  2 3048 -0.00000000E+00
  2 3461 -9.18026426E-04
  2 3462 -0.00000000E+00
  2 3463 -0.00000000E+00
  2 3464 -9.18026426E-04
  2 3465 -0.00000000E+00
  2 3466 -9.18026426E-04
  2 3471 -6.88519820E-04
  2 3472 -0.00000000E+00
  2 3473 -2.75407928E-03
  2 3474 -6.88519820E-04
  2 3475 -6.88519820E-04
  2 3476 -9.18026426E-04
  2 3477 -9.18026426E-04
  2 3503 -1.83605285E-03
  2 3504 -2.75407928E-03
  2 3505 -6.88519820E-04
  2 3506 -1.83605285E-03
  2 3507 -4.59013213E-04
  2 3508 -6.88519820E-04
  2 3509 -1.83605285E-03
  2 3510 -1.83605285E-03
  2 3512 -1.83605285E-03
  2 3517 -9.18026426E-04
  2 3518 -1.83605285E-03
  2 3519 -0.00000000E+00
  2 3522 -0.00000000E+00
  2 3523 -6.88519820E-04
  2 3524 -6.88519820E-04
  2 3525 -4.59013213E-04
  2 3529 -6.88519820E-04
  2 3530 -0.00000000E+00
  2 3531 -0.00000000E+00
  2 3532 -6.88519820E-04
  2 3533 -4.59013213E-04
  2 3534 -6.88519820E-04
  2 3535 -4.59013213E-04
  2 3536 -4.59013213E-04
  2 3537 -0.00000000E+00
  2 3538 -6.88519820E-04
  2 3539 -2.29506607E-04
  2 3540 -0.00000000E+00
  2 3541 -2.29506607E-04
  2 3542 -0.00000000E+00
  2 3543 -2.29506607E-04
  2 3544 -2.29506607E-04
  2 3545 -2.29506607E-04
  2 3546 -2.29506607E-04
  2 3547 -2.29506607E-04
  2 3548 -2.29506607E-04
  2 3549 -2.29506607E-04
  2 3550 -4.59013213E-04
  2 3552 -4.59013213E-04
  2 3554 -0.00000000E+00
  2 3560 -0.00000000E+00
  2 3561 -0.00000000E+00
  2 3562 -1.37703964E-03
  2 3563 -2.29506607E-04
  2 3564 -0.00000000E+00
  2 3565 -4.59013213E-04
  2 3566 -2.29506607E-04
  2 3567 -0.00000000E+00
  2 3568 -0.00000000E+00
  2 3569 -0.00000000E+00
  2 3570 -2.29506607E-04
  2 3574 -2.29506607E-04
  2 3575 -2.29506607E-04
  2 3576 -0.00000000E+00
  2 3577 -2.29506607E-04
  2 3578 -0.00000000E+00
  2 3579 -2.29506607E-04
  2 3580 -2.29506607E-04
  2 3581 -2.29506607E-04
  2 3582 -0.00000000E+00
  2 3583 -2.29506607E-04
  2 3584 -0.00000000E+00
  2 3585 -0.00000000E+00
  2 3586 -0.00000000E+00
  2 3587 -2.29506607E-04
  2 3588 -0.00000000E+00
  2 3589 -0.00000000E+00
  2 3590 -0.00000000E+00
  2 3591 -2.29506607E-04
  2 3592 -0.00000000E+00
  2 3593 -0.00000000E+00
  2 3594 -0.00000000E+00
  2 3595 -0.00000000E+00
  2 3596 -0.00000000E+00
  2 3597 -0.00000000E+00
  2 3598 -0.00000000E+00
  2 3599 -0.00000000E+00
  2 3600 -0.00000000E+00
  2 3601 -2.29506607E-04
  2 3602 -2.29506607E-04
  2 3603 -0.00000000E+00
  2 3604 -2.29506607E-04
  2 3605 -4.59013213E-04
  2 3606 -0.00000000E+00
  2 3607 -2.29506607E-04
  2 3608 -2.29506607E-04
  2 3609 -2.29506607E-04
  2 3610 -0.00000000E+00
  2 3611 -0.00000000E+00
  2 3612 -4.59013213E-04
  2 3613 -4.59013213E-04
  2 3614 -4.59013213E-04
  2 3615 -2.29506607E-04
  2 3616 -6.88519820E-04
  2 3617 -2.29506607E-04
  2 3618 -0.00000000E+00
  2 3619 -2.29506607E-04
  2 3620 -6.88519820E-04
  2 3621 -0.00000000E+00
  2 3622 -0.00000000E+00
  2 3624 -0.00000000E+00
  2 3647 -4.59013213E-04
  2 3649 -6.88519820E-04
  2 3650 -6.88519820E-04
  2 3651 -4.59013213E-04
  2 3652 -6.88519820E-04
  2 3653 -2.29506607E-04
  2 3654 -6.88519820E-04
  2 3655 -4.59013213E-04
  2 3656 -6.88519820E-04
  2 3657 -6.88519820E-04
  2 3658 -6.88519820E-04
  2 3660 -1.60654625E-03
  2 3665 -6.88519820E-04
  2 3667 -0.00000000E+00
  2 3668 -4.59013213E-04
  2 3669 -6.88519820E-04
  2 3670 -6.88519820E-04
  2 3719 -0.00000000E+00
  2 3720 -0.00000000E+00
  2 3721 -0.00000000E+00
  2 3725 -0.00000000E+00
  2 3727 -0.00000000E+00
  2 3742 -0.00000000E+00
  2 3745 -2.29506607E-04
  2 3746 -0.00000000E+00
  2 3747 -2.29506607E-04
  2 3748 -0.00000000E+00
  2 3749 -0.00000000E+00
  2 3762 -0.00000000E+00
  2 3763 -4.59013213E-04
  2 3813 -4.59013213E-04
  2 3815 -1.60654625E-03
  2 3970 -2.29506607E-04
  2 3974 -2.29506607E-04
  2 4585 -1.60654625E-03
  2 4587 -6.88519820E-04
  2 4590 -6.88519820E-04
  2 4592 -0.00000000E+00
  2 4593 -6.88519820E-04
  2 4594 -1.37703964E-03
  2 4595 -1.14753303E-03
  2 4596 -4.59013213E-04
  2 4597 -1.14753303E-03
  2 4598 -0.00000000E+00
  2 4599 -9.18026426E-04
  2 4600 -0.00000000E+00
  2 4601 -0.00000000E+00
  2 4602 -9.18026426E-04
  2 4608 -9.18026426E-04
  2 4615 -0.00000000E+00
  2 4616 -1.14753303E-03
  2 4617 -1.14753303E-03
  2 4618 -0.00000000E+00
  2 4619 -2.29506607E-04
  2 4620 -0.00000000E+00
  2 4621 -0.00000000E+00
  2 4622 -2.29506607E-04
  2 4623 -9.18026426E-04
  2 4624 -2.29506607E-04
  2 4625 -0.00000000E+00
  2 4628 -4.59013213E-04
  2 4629 -2.29506607E-04
  2 4630 -0.00000000E+00
  2 4633 -2.29506607E-04
  2 4634 -6.88519820E-04
  2 4635 -6.88519820E-04
  2 4636 -0.00000000E+00
  2 4637 -4.59013213E-04
  2 4638 -6.88519820E-04
  2 4644 -2.29506607E-04
  2 4649 -6.88519820E-04
  2 4650 -0.00000000E+00
  2 4651 -6.88519820E-04
  2 4652 -2.29506607E-04
  2 4653 -6.88519820E-04
  2 4654 -6.88519820E-04
  2 4655 -6.88519820E-04
  2 4656 -6.88519820E-04
  2 4657 -6.88519820E-04
  2 4658 -2.29506607E-04
  2 4659 -2.29506607E-04
  2 4660 -2.29506607E-04
  2 4661 -0.00000000E+00
  2 4662 -2.29506607E-04
  2 4663 -2.29506607E-04
  2 4664 -2.29506607E-04
  2 4666 -0.00000000E+00
  2 4667 -0.00000000E+00
  2 4669 -2.29506607E-04
  2 4671 -6.88519820E-04
  2 4672 -6.88519820E-04
  2 4673 -2.29506607E-04
  2 4687 -2.75407928E-03
  2 4690 -1.37703964E-03
  2 4693 -0.00000000E+00
  2 4694 -0.00000000E+00
  2 4696 -2.75407928E-03
  2 4709 -0.00000000E+00
  2 4710 -1.14753303E-03
  2 4711 -3.67210570E-03
  2 4712 -0.00000000E+00
  2 4716 -0.00000000E+00
  2 4718 -0.00000000E+00
  2 4722 -0.00000000E+00
  2 4723 -6.88519820E-04
  2 4724 -6.88519820E-04
  2 4725 -6.88519820E-04
  2 4726 -9.18026426E-04
  2 4727 -0.00000000E+00
  2 4728 -0.00000000E+00
  2 4729 -3.67210570E-03
  2 4730 -0.00000000E+00
  2 4731 -2.29506607E-04
  2 4732 -6.88519820E-04
  2 4733 -6.88519820E-04
  2 4734 -9.18026426E-04
  2 4735 -9.18026426E-04
  2 4736 -0.00000000E+00
  2 4737 -6.88519820E-04
  2 4738 -3.21309249E-03
  2 4739 -3.21309249E-03
  2 4740 -3.21309249E-03
  2 4741 -6.19667838E-03
  2 4742 -6.88519820E-04
  2 4743 -0.00000000E+00
  2 4744 -6.88519820E-04
  2 4745 -2.06555946E-03
  2 4746 -2.06555946E-03
  2 4747 -5.04914534E-03
  2 4748 -6.19667838E-03
  2 4749 -5.04914534E-03
  2 4750 -2.06555946E-03
  2 4751 -3.67210570E-03
  2 4752 -8.26223783E-03
  2 4753 -0.00000000E+00
  2 4754 -6.19667838E-03
  2 4756 -6.88519820E-04
  2 4757 -6.88519820E-04
  2 4758 -6.88519820E-04
  2 4759 -3.21309249E-03
  2 4760 -3.21309249E-03
  2 4762 -3.21309249E-03
  2 4763 -3.21309249E-03
  2 4765 -4.59013213E-04
  2 4766 -0.00000000E+00
  2 4767 -1.37703964E-03
  2 4769 -1.14753303E-03
  2 4963 -1.17048369E-02
  2 5009 -3.67210570E-03
  2 5010 -1.14753303E-03
  2 5011 -3.67210570E-03
  2 5012 -3.67210570E-03
  2 5013 -1.14753303E-03
  2 5018 -3.67210570E-03
  2 5019 -8.72125105E-03
  2 5020 -4.59013213E-04
  2 5021 -4.59013213E-04
  2 5022 -8.26223783E-03
  2 5023 -0.00000000E+00
  2 5024 -4.59013213E-04
  2 5026 -8.26223783E-03
  2 5027 -3.67210570E-03
  2 5028 -8.26223783E-03
  2 5029 -3.67210570E-03
  2 5030 -8.72125105E-03
  2 5041 -0.00000000E+00
  2 5044 -0.00000000E+00
  2 5048 -6.88519820E-04
  2 5050 -6.88519820E-04
  2 5153 -1.17048369E-02
  2 5154 -8.26223783E-03
  2 5155 -1.17048369E-02
  2 5156 -1.17048369E-02
  2 5157 -1.60654625E-03
  2 5158 -6.88519820E-04
  2 5159 -1.17048369E-02
  2 5160 -8.26223783E-03
  2 5161 -8.26223783E-03
  2 5162 -1.60654625E-03
  2 5164 -3.44259910E-03
  2 5165 -5.04914534E-03
  2 5167 -0.00000000E+00
  2 5171 -3.44259910E-03
  2 5174 -5.04914534E-03
  2 5175 -3.44259910E-03
  2 5180 -6.88519820E-04
  2 5183 -1.60654625E-03
  2 5196 -3.44259910E-03
  2 6112 -1.37703964E-03
  2 12441 -8.72125105E-03
  2 12442 -0.00000000E+00
  2 12469 -3.21309249E-03
  2 12470 -6.88519820E-04
  2 12483 -2.29506607E-04
  2 12484 -2.29506607E-04
  2 12485 -2.29506607E-04
  2 12486 -2.29506607E-04
  2 12487 -2.29506607E-04
  2 12488 -2.29506607E-04
  2 12862 -2.29506607E-04
  2 12863 -2.29506607E-04
  2 13951 -2.29506607E-04
  2 13952 -2.29506607E-04
  2 13973 -2.29506607E-04
  2 13974 -4.59013213E-04
  2 13995 -2.29506607E-04
  2 13996 -2.29506607E-04
  2 14005 -0.00000000E+00
  2 14006 -0.00000000E+00
  2 14374 -2.29506607E-04
  2 14375 -0.00000000E+00
  2 14489 -2.29506607E-04
  2 14490 -4.59013213E-04
  2 14532 -2.29506607E-04
  2 14533 -2.29506607E-04
  2 14589 -0.00000000E+00
  2 14590 -2.29506607E-04
  2 14681 -3.21309249E-03
  2 14682 -1.17048369E-02
  2 14689 -1.60654625E-03
  2 14690 -3.44259910E-03
  2 14691 -3.44259910E-03
  2 14693 -3.44259910E-03
  2 14694 -1.60654625E-03
  2 14696 -1.60654625E-03
  2 14784 -8.72125105E-03
  2 14785 -8.26223783E-03
  2 14788 -6.88519820E-04
  2 14789 -1.17048369E-02
  2 14975 -6.88519820E-04
  2 15057 -3.21309249E-03
  2 15058 -3.21309249E-03
  2 15059 -5.04914534E-03
  2 15060 -6.88519820E-04
  2 15137 -0.00000000E+00
  2 15138 -9.18026426E-04
  2 15168 -2.29506607E-04
  2 15169 -0.00000000E+00
  2 15170 -0.00000000E+00
  2 15171 -0.00000000E+00
  2 15245 -8.72125105E-03
  2 15246 -4.59013213E-04
  2 15811 -0.00000000E+00
  2 15812 -6.88519820E-04
  2 15813 -1.14753303E-03
  2 15814 -4.59013213E-04
  2 15815 -4.59013213E-04
  2 15818 -6.88519820E-04
  2 15819 -6.88519820E-04
  2 15824 -0.00000000E+00
  2 15825 -0.00000000E+00
  2 15853 -0.00000000E+00
  2 15854 -1.83605285E-03
  2 15855 -0.00000000E+00
  2 15856 -2.29506607E-04
  2 15858 -0.00000000E+00
  2 15859 -2.29506607E-04
  2 15860 -2.29506607E-04
  2 15861 -6.88519820E-04
  2 15862 -6.88519820E-04
  2 15863 -9.18026426E-04
  2 15864 -9.18026426E-04
  2 15869 -2.06555946E-03
  2 15870 -5.04914534E-03
  2 15871 -0.00000000E+00
  2 15872 -0.00000000E+00
  2 15873 -5.04914534E-03
  2 15874 -0.00000000E+00
  2 16297 -6.88519820E-04
  2 16298 -9.18026426E-04
  2 16832 -9.18026426E-04
  2 16882 -2.75407928E-03
  2 16884 -0.00000000E+00
  2 16885 -0.00000000E+00
  2 16942 -0.00000000E+00
  2 16943 -0.00000000E+00
  2 16953 -2.29506607E-04
  2 16954 -0.00000000E+00
  2 16955 -0.00000000E+00
  2 16956 -0.00000000E+00
  2 16957 -1.60654625E-03
  2 16958 -0.00000000E+00
  2 16959 -0.00000000E+00
  2 16960 -0.00000000E+00
  2 16961 -2.29506607E-04
  2 16962 -4.59013213E-04
  2 16963 -2.29506607E-04
  2 16965 -4.59013213E-04
  2 16966 -2.29506607E-04
  2 17004 -4.59013213E-04
  2 17005 -1.37703964E-03
  2 17038 -4.59013213E-04
  2 17039 -4.59013213E-04
  2 17043 -9.18026426E-04
  2 17053 -4.59013213E-04
  2 18365 -4.59013213E-04
  2 18366 -0.00000000E+00
  2 18367 -0.00000000E+00
  2 18368 -0.00000000E+00
  2 18369 -0.00000000E+00
  2 18370 -0.00000000E+00
  2 18371 -4.59013213E-04
  2 18372 -4.59013213E-04
  2 18373 -1.37703964E-03
  2 18527 -0.00000000E+00
  2 18528 -9.18026426E-04
  2 18925 -2.75407928E-03
  2 18973 -0.00000000E+00
  2 18979 -9.18026426E-04
  2 18980 -0.00000000E+00
  2 18981 -0.00000000E+00
  2 18982 -0.00000000E+00
  2 19047 -0.00000000E+00
  2 19048 -6.88519820E-04
  2 19049 -2.29506607E-04
  2 19050 -6.88519820E-04
  2 19051 -0.00000000E+00
  2 19052 -4.59013213E-04
  2 19053 -1.83605285E-03
  2 19054 -4.59013213E-04
  2 19055 -0.00000000E+00
  2 20382 -0.00000000E+00
  2 20383 -1.14753303E-03
  2 20403 -4.59013213E-03
  2 20795 -6.88519820E-04
  2 20796 -6.19667838E-03
  2 20863 -1.37703964E-03
  2 20864 -1.37703964E-03
  2 21211 -6.88519820E-04
  2 21212 -6.88519820E-04
  2 21354 -4.59013213E-04
  2 21355 -4.59013213E-04
  2 21402 -0.00000000E+00
  2 21403 -0.00000000E+00
  2 21485 -0.00000000E+00
  2 21486 -2.29506607E-04
  2 21794 -0.00000000E+00
  2 22416 -0.00000000E+00
  2 22417 -2.29506607E-04
  2 22525 -4.59013213E-04
  2 22618 -4.59013213E-04
  2 22619 -0.00000000E+00
  2 23054 -0.00000000E+00
  2 23157 -6.88519820E-04
  2 23356 -0.00000000E+00
  2 23357 -0.00000000E+00
  2 23413 -2.29506607E-03
  2 23414 -0.00000000E+00
  2 23476 -2.29506607E-03
  2 23553 -2.29506607E-04
  2 23719 -4.59013213E-04
  2 23764 -0.00000000E+00
  2 24101 -0.00000000E+00
  2 24701 -6.88519820E-04
  2 24702 -9.18026426E-04
  2 24715 -6.88519820E-04
  2 24944 -0.00000000E+00
  2 24947 -0.00000000E+00
  2 24954 -0.00000000E+00
  2 24955 -1.60654625E-03
  2 24962 -2.29506607E-04
  2 24963 -2.29506607E-03
  2 24048 -1.70554924E-03
  2 24560 -0.00000000E+00
  2 24589 -1.70554924E-03
  2 24593 -1.87610416E-02
  2 24848 -8.52774618E-03
  2 24876 -1.70554924E-03
  2 24940 -6.82219694E-03
  2 24979 -0.00000000E+00
  2 24980 -1.02332954E-02
  2 24989 -8.52774618E-03
  2 24990 -5.11664771E-03
  2 25101 -3.41109847E-03
  2 25176 -1.02332954E-02
  2 25177 -1.70554924E-03
  2 25179 -6.82219694E-03
  2 25180 -5.11664771E-03
  2 25181 -6.82219694E-03
  2 25182 -6.82219694E-03
  2 25183 -8.52774618E-03
  2 25187 -6.82219694E-03
  2 25189 -2.04665908E-02
  2 25193 -5.62831248E-02
  2 25194 -1.70554924E-03
  2 25195 -8.52774618E-03
  2 25196 -3.41109847E-03
  2 25197 -5.11664771E-03
  2 25198 -1.70554924E-03
  2 25199 -8.52774618E-03
  2 25200 -8.52774618E-03
  2 25201 -3.41109847E-03
  2 25203 -8.52774618E-03
  2 25212 -0.00000000E+00
  2 25213 -6.82219694E-03
  2 18912 -8.66289744E-05
  2 21644 -1.84086570E-02
  2 22415 -1.44381624E-04
  2 22989 -1.15505299E-03
  2 23058 -1.64595051E-03
  2 23327 -1.29943462E-04
  2 23336 -0.00000000E+00
  2 23520 -0.00000000E+00
  2 23733 -1.29943462E-04
  2 23833 -9.32705291E-03
  2 23891 -0.00000000E+00
  2 23892 -1.29943462E-04
  2 23967 -5.77526496E-05
  2 23981 -1.58819786E-04
  2 23982 -3.79723671E-03
  2 24239 -0.00000000E+00
  2 24770 -6.06402820E-03
  2 2668 -4.30429474E-03
  2 16811 -0.00000000E+00
  2 18363 -0.00000000E+00
  2 18858 -0.00000000E+00
  2 18907 -0.00000000E+00
  2 21146 -6.02601264E-03
  2 22789 -0.00000000E+00
  2 22796 -5.16515369E-03
  2 22991 -1.72171790E-03
  2 23045 -2.58257684E-03
  2 23328 -3.44343579E-03
  2 23329 -8.60858948E-04
  2 23541 -3.44343579E-03
  2 23731 -0.00000000E+00
  2 23751 -0.00000000E+00
  2 23756 -4.30429474E-03
  2 23829 -0.00000000E+00
  2 23830 -5.16515369E-03
  2 24147 -7.74773053E-03
  2 24318 -3.09909221E-02
  2 24322 -2.66866274E-02
  2 24325 -2.15214737E-02
  2 24326 -1.29128842E-02
  2 24327 -2.43623082E-01
  2 24328 -8.60858948E-03
  2 24329 -1.20520253E-02
  2 24330 -1.03303074E-02
  2 24331 -0.00000000E+00
  2 24332 -8.60858948E-04
  2 24335 -3.52952169E-02
  2 24336 -2.58257684E-03
  2 24698 -1.72171790E-02
  2 24900 -4.30429474E-03
  2 25241 -0.00000000E+00
  2 25243 -0.00000000E+00
  2 8 -0.00000000E+00
  2 22 -0.00000000E+00
  2 773 -0.00000000E+00
  2 958 -0.00000000E+00
  2 972 -3.13262593E-04
  2 2047 -2.72841613E-04
  2 2077 -2.72841613E-04
  2 2195 -0.00000000E+00
  2 2213 -0.00000000E+00
  2 3057 -3.13262593E-04
  2 3076 -3.13262593E-04
  2 4076 -0.00000000E+00
  2 4090 -0.00000000E+00
  2 4448 -1.12168219E-03
  2 4449 -0.00000000E+00
  2 4454 -1.12168219E-03
  2 4497 -1.12168219E-03
  2 4518 -3.13262593E-04
  2 4540 -3.13262593E-04
  2 4541 -2.72841613E-04
  2 6100 -4.04209797E-05
  2 6116 -3.13262593E-04
  2 11124 -9.09472044E-05
  2 11148 -1.01052449E-04
  2 11271 -2.52631123E-04
  2 11272 -1.71789164E-04
  2 11274 -2.52631123E-04
  2 11275 -1.51578674E-04
  2 11276 -1.51578674E-04
  2 11277 -1.11157694E-04
  2 11278 -5.96209451E-04
  2 11280 -2.12210144E-04
  2 11281 -1.71789164E-04
  2 11282 -1.21262939E-04
  2 11283 -1.21262939E-04
  2 11284 -1.11157694E-04
  2 11285 -2.52631123E-04
  2 11286 -2.52631123E-04
  2 11287 -5.05262247E-04
  2 11288 -2.52631123E-04
  2 11289 -2.52631123E-04
  2 11290 -1.71789164E-04
  2 11291 -1.51578674E-04
  2 11292 -1.51578674E-04
  2 11296 -1.51578674E-04
  2 11323 -6.06314696E-05
  2 11337 -1.11157694E-04
  2 11339 -1.81894409E-04
  2 11340 -1.11157694E-04
  2 11341 -1.21262939E-04
  2 11342 -1.11157694E-04
  2 11343 -1.71789164E-04
  2 11344 -1.11157694E-04
  2 11345 -2.12210144E-04
  2 11346 -1.11157694E-04
  2 11347 -1.81894409E-04
  2 11348 -5.55788471E-04
  2 11349 -1.31368184E-04
  2 11350 -1.11157694E-04
  2 11351 -1.11157694E-04
  2 11352 -1.21262939E-04
  2 11353 -2.32420633E-04
  2 11354 -2.32420633E-04
  2 11355 -1.31368184E-04
  2 11356 -2.32420633E-04
  2 11357 -1.21262939E-04
  2 11358 -6.06314696E-05
  2 11359 -2.12210144E-04
  2 11360 -1.11157694E-04
  2 11361 -2.32420633E-04
  2 11362 -7.07367145E-05
  2 11364 -1.51578674E-04
  2 11423 -9.09472044E-05
  2 11424 -1.31368184E-04
  2 11432 -6.06314696E-05
  2 11583 -6.06314696E-05
  2 11584 -1.31368184E-04
  2 11589 -5.05262247E-05
  2 11593 -5.05262247E-05
  2 11594 -6.06314696E-05
  2 11595 -1.41473429E-04
  2 11596 -1.01052449E-04
  2 11598 -1.01052449E-04
  2 11599 -0.00000000E+00
  2 11631 -1.01052449E-04
  2 11632 -9.09472044E-05
  2 11633 -9.09472044E-05
  2 11645 -4.04209797E-05
  2 11649 -1.71789164E-04
  2 11737 -0.00000000E+00
  2 11738 -0.00000000E+00
  2 11740 -3.13262593E-04
  2 11785 -0.00000000E+00
  2 11814 -0.00000000E+00
  2 11826 -3.13262593E-04
  2 11831 -0.00000000E+00
  2 11839 -0.00000000E+00
  2 11843 -1.01052449E-04
  2 11845 -1.21262939E-04
  2 11846 -1.21262939E-04
  2 11847 -1.21262939E-04
  2 11848 -8.08419595E-05
  2 11849 -8.08419595E-05
  2 11850 -1.81894409E-04
  2 11851 -1.31368184E-04
  2 11852 -6.06314696E-05
  2 11853 -5.55788471E-04
  2 11854 -6.06314696E-05
  2 11855 -8.08419595E-05
  2 11856 -1.91999654E-04
  2 11857 -8.08419595E-05
  2 11858 -1.41473429E-04
  2 11859 -4.04209797E-05
  2 11860 -1.91999654E-04
  2 11861 -1.41473429E-04
  2 11862 -1.41473429E-04
  2 11863 -1.71789164E-04
  2 11864 -4.04209797E-05
  2 11865 -5.05262247E-05
  2 11866 -8.08419595E-05
  2 11867 -1.21262939E-04
  2 11868 -1.71789164E-04
  2 11869 -9.09472044E-05
  2 11870 -7.07367145E-05
  2 11871 -1.21262939E-04
  2 11872 -7.07367145E-05
  2 11873 -6.06314696E-05
  2 11874 -9.09472044E-05
  2 11875 -7.07367145E-05
  2 11876 -7.07367145E-05
  2 11877 -8.08419595E-05
  2 11878 -7.07367145E-05
  2 11879 -6.06314696E-05
  2 11880 -9.09472044E-05
  2 11881 -7.07367145E-05
  2 11882 -9.09472044E-05
  2 11883 -4.04209797E-05
  2 11884 -7.07367145E-05
  2 11885 -1.01052449E-04
  2 11886 -4.04209797E-05
  2 11887 -6.06314696E-05
  2 11888 -1.31368184E-04
  2 11889 -7.07367145E-05
  2 11890 -4.04209797E-05
  2 11891 -8.08419595E-05
  2 11892 -1.41473429E-04
  2 11893 -1.41473429E-04
  2 11894 -1.41473429E-04
  2 11895 -8.08419595E-05
  2 11896 -8.08419595E-05
  2 11897 -6.06314696E-05
  2 11898 -1.41473429E-04
  2 11899 -9.09472044E-05
  2 11900 -4.04209797E-05
  2 11901 -8.08419595E-05
  2 11902 -1.01052449E-04
  2 11903 -1.71789164E-04
  2 11904 -1.41473429E-04
  2 11905 -1.41473429E-04
  2 11906 -4.04209797E-05
  2 11907 -1.41473429E-04
  2 11908 -1.81894409E-04
  2 11909 -1.41473429E-04
  2 11910 -1.41473429E-04
  2 11911 -1.41473429E-04
  2 11912 -1.01052449E-04
  2 11913 -4.04209797E-05
  2 11914 -1.41473429E-04
  2 11915 -4.04209797E-05
  2 11916 -4.04209797E-05
  2 11917 -5.05262247E-05
  2 11918 -2.62736368E-04
  2 11919 -2.32420633E-04
  2 11920 -3.03157348E-05
  2 11921 -4.04209797E-05
  2 11922 -5.05262247E-05
  2 11923 -4.04209797E-05
  2 11924 -2.02104899E-05
  2 11925 -3.03157348E-05
  2 11926 -4.04209797E-05
  2 11927 -2.22315389E-04
  2 11928 -2.22315389E-04
  2 11929 -2.22315389E-04
  2 11930 -2.32420633E-04
  2 11931 -5.05262247E-05
  2 11932 -4.04209797E-05
  2 11933 -2.22315389E-04
  2 11934 -4.04209797E-05
  2 11935 -1.01052449E-04
  2 11936 -2.62736368E-04
  2 11937 -1.01052449E-04
  2 11938 -1.41473429E-04
  2 11954 -0.00000000E+00
  2 11985 -1.21262939E-04
  2 11986 -1.11157694E-04
  2 11987 -2.32420633E-04
  2 11988 -1.21262939E-04
  2 11989 -1.21262939E-04
  2 11991 -4.04209797E-05
  2 11994 -1.21262939E-04
  2 11995 -1.11157694E-04
  2 11996 -2.22315389E-04
  2 11997 -1.11157694E-04
  2 11998 -2.32420633E-04
  2 11999 -1.61683919E-04
  2 12000 -1.21262939E-04
  2 12001 -4.04209797E-05
  2 12002 -1.91999654E-04
  2 12003 -1.61683919E-04
  2 12004 -1.11157694E-04
  2 12005 -8.08419595E-05
  2 12006 -9.09472044E-05
  2 12017 -0.00000000E+00
  2 12020 -0.00000000E+00
  2 12024 -0.00000000E+00
  2 12030 -2.22315389E-04
  2 12032 -1.41473429E-04
  2 12034 -0.00000000E+00
  2 12035 -1.71789164E-04
  2 12036 -2.12210144E-04
  2 12037 -4.04209797E-05
  2 12038 -0.00000000E+00
  2 12039 -3.53683573E-04
  2 12040 -3.53683573E-04
  2 12041 -3.53683573E-04
  2 12042 -3.53683573E-04
  2 12043 -1.41473429E-04
  2 12044 -3.13262593E-04
  2 12045 -1.12168219E-03
  2 12046 -3.13262593E-04
  2 12047 -1.12168219E-03
  2 12048 -1.61683919E-04
  2 12049 -3.13262593E-04
  2 12050 -3.13262593E-04
  2 12051 -1.11157694E-04
  2 12052 -3.13262593E-04
  2 12053 -3.13262593E-04
  2 12054 -1.12168219E-03
  2 12055 -3.23367838E-04
  2 12056 -1.71789164E-04
  2 12057 -8.08419595E-05
  2 12058 -4.04209797E-05
  2 12059 -1.71789164E-04
  2 12060 -8.08419595E-05
  2 12061 -1.71789164E-04
  2 12062 -4.04209797E-05
  2 12063 -2.12210144E-04
  2 12064 -1.71789164E-04
  2 12065 -9.09472044E-05
  2 12066 -2.12210144E-04
  2 12067 -3.23367838E-04
  2 12068 -3.23367838E-04
  2 12069 -3.83999307E-04
  2 12070 -1.11157694E-04
  2 12071 -1.71789164E-04
  2 12072 -1.71789164E-04
  2 12073 -1.01052449E-05
  2 12074 -2.02104899E-05
  2 12075 -4.04209797E-05
  2 12076 -2.02104899E-05
  2 12077 -2.12210144E-04
  2 12078 -0.00000000E+00
  2 12079 -8.08419595E-05
  2 12080 -0.00000000E+00
  2 12082 -0.00000000E+00
  2 12083 -0.00000000E+00
  2 12084 -3.13262593E-04
  2 12085 -0.00000000E+00
  2 12086 -0.00000000E+00
  2 12087 -1.12168219E-03
  2 12088 -0.00000000E+00
  2 12089 -0.00000000E+00
  2 12090 -0.00000000E+00
  2 12093 -3.13262593E-04
  2 12094 -0.00000000E+00
  2 12095 -0.00000000E+00
  2 12096 -0.00000000E+00
  2 12097 -3.13262593E-04
  2 12098 -0.00000000E+00
  2 12101 -0.00000000E+00
  2 12103 -0.00000000E+00
  2 12104 -0.00000000E+00
  2 12105 -0.00000000E+00
  2 12106 -3.13262593E-04
  2 12107 -0.00000000E+00
  2 12108 -1.01052449E-05
  2 12109 -0.00000000E+00
  2 12110 -0.00000000E+00
  2 12111 -0.00000000E+00
  2 12112 -0.00000000E+00
  2 12113 -0.00000000E+00
  2 12114 -0.00000000E+00
  2 12115 -0.00000000E+00
  2 12116 -0.00000000E+00
  2 12117 -0.00000000E+00
  2 12118 -0.00000000E+00
  2 12121 -0.00000000E+00
  2 12123 -0.00000000E+00
  2 12125 -0.00000000E+00
  2 12127 -0.00000000E+00
  2 12128 -1.71789164E-04
  2 12129 -2.62736368E-04
  2 12130 -2.22315389E-04
  2 12131 -2.32420633E-04
  2 12132 -2.62736368E-04
  2 12133 -2.22315389E-04
  2 12134 -2.22315389E-04
  2 12135 -2.22315389E-04
  2 12136 -0.00000000E+00
  2 12137 -2.32420633E-04
  2 12138 -2.32420633E-04
  2 12139 -2.12210144E-04
  2 12140 -2.12210144E-04
  2 12141 -2.12210144E-04
  2 12142 -0.00000000E+00
  2 12143 -0.00000000E+00
  2 12144 -2.62736368E-04
  2 12145 -0.00000000E+00
  2 12146 -0.00000000E+00
  2 12147 -5.05262247E-05
  2 12148 -0.00000000E+00
  2 12149 -0.00000000E+00
  2 12150 -3.03157348E-05
  2 12151 -0.00000000E+00
  2 12152 -3.03157348E-05
  2 12154 -0.00000000E+00
  2 12156 -2.62736368E-04
  2 12161 -0.00000000E+00
  2 12162 -1.61683919E-04
  2 12163 -1.16210317E-03
  2 12164 -4.04209797E-05
  2 12165 -0.00000000E+00
  2 12167 -0.00000000E+00
  2 12168 -0.00000000E+00
  2 12169 -0.00000000E+00
  2 12170 -0.00000000E+00
  2 12172 -0.00000000E+00
  2 12175 -1.01052449E-05
  2 12176 -0.00000000E+00
  2 12177 -1.01052449E-05
  2 12178 -0.00000000E+00
  2 12179 -0.00000000E+00
  2 12180 -1.01052449E-05
  2 12181 -0.00000000E+00
  2 12182 -0.00000000E+00
  2 12183 -0.00000000E+00
  2 12184 -0.00000000E+00
  2 12185 -0.00000000E+00
  2 12186 -0.00000000E+00
  2 12188 -0.00000000E+00
  2 12190 -2.72841613E-04
  2 12191 -2.72841613E-04
  2 12193 -0.00000000E+00
  2 12195 -2.84967907E-03
  2 12196 -0.00000000E+00
  2 12197 -0.00000000E+00
  2 12198 -0.00000000E+00
  2 12200 -0.00000000E+00
  2 12201 -0.00000000E+00
  2 12202 -0.00000000E+00
  2 12204 -0.00000000E+00
  2 12205 -2.72841613E-04
  2 12208 -2.72841613E-04
  2 12209 -2.72841613E-04
  2 12211 -0.00000000E+00
  2 12212 -0.00000000E+00
  2 12214 -2.84967907E-03
  2 12215 -0.00000000E+00
  2 12218 -0.00000000E+00
  2 12219 -0.00000000E+00
  2 12222 -2.12210144E-04
  2 12226 -2.12210144E-04
  2 12227 -1.31368184E-04
  2 12266 -0.00000000E+00
  2 12267 -2.72841613E-04
  2 12268 -2.72841613E-04
  2 12269 -3.13262593E-04
  2 12270 -3.13262593E-04
  2 12271 -1.12168219E-03
  2 12272 -1.12168219E-03
  2 12346 -0.00000000E+00
  2 12347 -0.00000000E+00
  2 12356 -0.00000000E+00
  2 12357 -0.00000000E+00
  2 12358 -1.16210317E-03
  2 12359 -1.16210317E-03
  2 12360 -0.00000000E+00
  2 12361 -0.00000000E+00
  2 12366 -0.00000000E+00
  2 12367 -0.00000000E+00
  2 12372 -0.00000000E+00
  2 12373 -0.00000000E+00
  2 12374 -0.00000000E+00
  2 12375 -0.00000000E+00
  2 12376 -2.84967907E-03
  2 12377 -0.00000000E+00
  2 12381 -3.13262593E-04
  2 12382 -3.13262593E-04
  2 12383 -3.13262593E-04
  2 12384 -1.12168219E-03
  2 12385 -3.13262593E-04
  2 12386 -3.13262593E-04
  2 12459 -0.00000000E+00
  2 12460 -0.00000000E+00
  2 12617 -0.00000000E+00
  2 12697 -2.72841613E-04
  2 12698 -2.72841613E-04
  2 12699 -1.12168219E-03
  2 12700 -1.12168219E-03
  2 12773 -3.13262593E-04
  2 12774 -3.13262593E-04
  2 12775 -3.13262593E-04
  2 12776 -3.13262593E-04
  2 12777 -0.00000000E+00
  2 12778 -0.00000000E+00
  2 12789 -0.00000000E+00
  2 12790 -3.13262593E-04
  2 12791 -3.13262593E-04
  2 12793 -0.00000000E+00
  2 12794 -0.00000000E+00
  2 12795 -2.72841613E-04
  2 12796 -1.16210317E-03
  2 12797 -0.00000000E+00
  2 12798 -0.00000000E+00
  2 12799 -4.04209797E-05
  2 12800 -0.00000000E+00
  2 12801 -0.00000000E+00
  2 12802 -0.00000000E+00
  2 12803 -0.00000000E+00
  2 12804 -0.00000000E+00
  2 12805 -0.00000000E+00
  2 12811 -0.00000000E+00
  2 12813 -0.00000000E+00
  2 12814 -0.00000000E+00
  2 12815 -0.00000000E+00
  2 12816 -0.00000000E+00
  2 12817 -2.72841613E-04
  2 12823 -1.12168219E-03
  2 12824 -1.12168219E-03
  2 12825 -3.13262593E-04
  2 12826 -1.12168219E-03
  2 12827 -3.13262593E-04
  2 12828 -3.13262593E-04
  2 12829 -3.13262593E-04
  2 12830 -3.13262593E-04
  2 12852 -0.00000000E+00
  2 12853 -0.00000000E+00
  2 12854 -0.00000000E+00
  2 12855 -0.00000000E+00
  2 12856 -0.00000000E+00
  2 12963 -0.00000000E+00
  2 12964 -0.00000000E+00
  2 12965 -0.00000000E+00
  2 13057 -2.72841613E-04
  2 13058 -2.72841613E-04
  2 13059 -2.72841613E-04
  2 13124 -1.12168219E-03
  2 13125 -1.12168219E-03
  2 13126 -3.13262593E-04
  2 13127 -3.13262593E-04
  2 13128 -0.00000000E+00
  2 13129 -0.00000000E+00
  2 13130 -2.84967907E-03
  2 13131 -4.04209797E-05
  2 13132 -2.72841613E-04
  2 13133 -1.16210317E-03
  2 13134 -3.13262593E-04
  2 13135 -3.13262593E-04
  2 13137 -0.00000000E+00
  2 13138 -0.00000000E+00
  2 13139 -0.00000000E+00
  2 13141 -1.16210317E-03
  2 13142 -2.84967907E-03
  2 13143 -1.16210317E-03
  2 13144 -4.04209797E-05
  2 13145 -2.72841613E-04
  2 13146 -0.00000000E+00
  2 13147 -0.00000000E+00
  2 13148 -0.00000000E+00
  2 13149 -0.00000000E+00