# File generated by Flopy version 3.9.1 on 02/10/2026 at 20:59:31.
BEGIN options
END options

BEGIN dimensions
  NLAY  2
  NCPL  25262
  NVERT  13489
END dimensions

BEGIN griddata
  top
    INTERNAL  FACTOR  1.0
         3.00000000      14.00000000       0.00000000       6.00000000       7.00000000       7.00000000      16.00000000      -7.00000000       7.00000000      12.00000000       5.00000000       4.00000000       9.00000000      -5.00000000       6.00000000       5.00000000       7.00000000       6.00000000      10.00000000       4.00000000
        11.00000000      -4.00000000      17.00000000       7.00000000      11.00000000      27.00000000      -1.00000000      10.00000000       5.00000000      11.00000000      12.00000000       0.00000000      12.00000000      12.00000000       0.00000000       2.00000000       2.00000000       7.00000000      -7.00000000      12.00000000
        -9.00000000       7.00000000       0.00000000      12.00000000       0.00000000      -4.00000000      16.00000000       4.00000000       6.00000000       1.00000000       2.00000000       4.00000000      -8.00000000       8.00000000       2.00000000      -2.00000000      18.00000000      -1.00000000       1.00000000       1.00000000
         2.00000000       2.00000000      30.00000000       8.00000000       5.00000000       9.00000000      10.00000000      10.00000000      10.00000000      10.00000000       9.00000000       6.00000000      14.00000000       9.00000000      12.00000000       9.00000000       9.00000000      10.00000000       8.00000000      10.00000000
         8.00000000       9.00000000       9.00000000       7.00000000       8.00000000       9.00000000      12.00000000       9.00000000      17.00000000      10.00000000      16.00000000      -2.00000000      27.00000000      10.00000000      65.00000000       0.00000000      87.00000000      79.00000000      78.00000000       8.00000000
         4.00000000      -6.00000000      15.00000000       0.00000000       0.00000000       8.00000000      -2.00000000       7.00000000       8.00000000      29.00000000       2.00000000      18.00000000       9.00000000       8.00000000       9.00000000       9.00000000       8.00000000       8.00000000      10.00000000      10.00000000
        10.00000000       9.00000000      10.00000000       9.00000000       8.00000000       8.00000000       8.00000000       8.00000000      10.00000000       9.00000000      10.00000000       9.00000000       9.00000000      10.00000000      10.00000000       9.00000000       7.00000000       7.00000000       7.00000000       6.00000000
         6.00000000       6.00000000       7.00000000       8.00000000       8.00000000       7.00000000       6.00000000       8.00000000       6.00000000       6.00000000       6.00000000       7.00000000       7.00000000       7.00000000       7.00000000       7.00000000       7.00000000       8.00000000       8.00000000       6.00000000
         9.00000000       9.00000000       9.00000000       8.00000000       9.00000000      10.00000000      10.00000000       9.00000000       9.00000000       8.00000000       7.00000000       8.00000000       8.00000000       7.00000000       8.00000000       8.00000000       7.00000000       8.00000000       9.00000000       8.00000000
         9.00000000       8.00000000       8.00000000       7.00000000      10.00000000      17.00000000       6.00000000       7.00000000       5.00000000       6.00000000       7.00000000       6.00000000       8.00000000       6.00000000       8.00000000       7.00000000       7.00000000       6.00000000       5.00000000       4.00000000
         5.00000000       5.00000000       5.00000000       5.00000000       5.00000000       5.00000000       6.00000000       5.00000000       7.00000000       4.00000000       8.00000000       9.00000000       9.00000000       8.00000000       9.00000000      10.00000000       9.00000000       9.00000000       8.00000000       9.00000000
         7.00000000       8.00000000       8.00000000       7.00000000       8.00000000       8.00000000       9.00000000       7.00000000       8.00000000       6.00000000       9.00000000       8.00000000       8.00000000       8.00000000       4.00000000       4.00000000       4.00000000       4.00000000       5.00000000       5.00000000
         5.00000000       4.00000000       5.00000000       4.00000000       4.00000000       4.00000000       4.00000000       4.00000000       4.00000000       4.00000000       4.00000000       4.00000000       5.00000000       4.00000000       5.00000000       4.00000000       5.00000000       5.00000000       5.00000000       5.00000000
         6.00000000       5.00000000       6.00000000       6.00000000       6.00000000       5.00000000       5.00000000       5.00000000       5.00000000       5.00000000       6.00000000       6.00000000       7.00000000       5.00000000       6.00000000       5.00000000       6.00000000       5.00000000       5.00000000       5.00000000
         9.00000000       5.00000000       9.00000000      10.00000000       8.00000000       9.00000000       8.00000000       8.00000000       7.00000000       7.00000000       6.00000000       8.00000000       9.00000000       8.00000000      10.00000000       9.00000000       7.00000000       9.00000000       8.00000000       6.00000000
         6.00000000       8.00000000       6.00000000       7.00000000       7.00000000       7.00000000       9.00000000       7.00000000       8.00000000      10.00000000      10.00000000       8.00000000       8.00000000      10.00000000       7.00000000       6.00000000       6.00000000       5.00000000       9.00000000       6.00000000
        10.00000000       8.00000000       8.00000000      10.00000000      10.00000000       7.00000000       6.00000000       7.00000000       7.00000000       8.00000000       7.00000000       7.00000000       9.00000000      10.00000000       8.00000000       9.00000000      10.00000000      10.00000000       9.00000000      10.00000000
         6.00000000       8.00000000       8.00000000      10.00000000       7.00000000      10.00000000      10.00000000       7.00000000       9.00000000      10.00000000       6.00000000       5.00000000       6.00000000       8.00000000      10.00000000      10.00000000      10.00000000       6.00000000      10.00000000      10.00000000
         5.00000000       7.00000000       8.00000000       5.00000000       9.00000000       6.00000000       9.00000000       8.00000000      10.00000000       7.00000000       9.00000000       7.00000000      10.00000000       9.00000000      10.00000000      10.00000000       8.00000000       8.00000000       9.00000000       4.00000000
        95.00000000       4.00000000       4.00000000      17.00000000      78.00000000      74.00000000      19.00000000      79.00000000      73.00000000      67.00000000      14.00000000       7.00000000      19.00000000      18.00000000      17.00000000      18.00000000      20.00000000      20.00000000      14.00000000      71.00000000
        19.00000000      15.00000000      16.00000000      11.00000000      18.00000000      18.00000000      19.00000000      18.00000000      19.00000000      12.00000000      13.00000000      15.00000000      15.00000000      17.00000000      17.00000000      11.00000000      10.00000000      12.00000000      12.00000000      18.00000000
        18.00000000      20.00000000      19.00000000      17.00000000      16.00000000      19.00000000      19.00000000      16.00000000      18.00000000      16.00000000      19.00000000      19.00000000      16.00000000      16.00000000      15.00000000      15.00000000      15.00000000      14.00000000      17.00000000      17.00000000
        18.00000000      17.00000000      15.00000000      18.00000000      18.00000000      14.00000000      19.00000000      19.00000000      20.00000000      19.00000000      19.00000000      20.00000000      18.00000000      18.00000000      19.00000000      20.00000000      19.00000000      19.00000000      19.00000000      19.00000000
        20.00000000      19.00000000      19.00000000      20.00000000      20.00000000      18.00000000      14.00000000      19.00000000      19.00000000      18.00000000      11.00000000      14.00000000     149.00000000       1.00000000      16.00000000      20.00000000     108.00000000       5.00000000      86.00000000     109.00000000
       -16.00000000     139.00000000      18.00000000      18.00000000      18.00000000      18.00000000      19.00000000      20.00000000     124.00000000      20.00000000       1.00000000      18.00000000      82.00000000       5.00000000      82.00000000      87.00000000      83.00000000      83.00000000      83.00000000      85.00000000
         8.00000000      83.00000000       4.00000000      19.00000000      85.00000000      83.00000000      20.00000000      82.00000000      19.00000000      20.00000000      17.00000000      16.00000000      83.00000000      19.00000000      19.00000000      83.00000000      -6.00000000      20.00000000      13.00000000      16.00000000
        19.00000000      12.00000000      16.00000000      16.00000000      18.00000000      19.00000000      17.00000000      16.00000000      10.00000000       9.00000000      10.00000000      20.00000000      13.00000000      10.00000000      14.00000000      11.00000000       9.00000000      13.00000000      19.00000000      13.00000000
        16.00000000      16.00000000      18.00000000      17.00000000      17.00000000      15.00000000      14.00000000      13.00000000      15.00000000      13.00000000      12.00000000      13.00000000      13.00000000      12.00000000      14.00000000      13.00000000      14.00000000      13.00000000      13.00000000      17.00000000
        12.00000000      13.00000000      19.00000000      20.00000000       6.00000000      19.00000000       4.00000000      20.00000000       9.00000000      10.00000000      10.00000000      10.00000000       9.00000000       9.00000000       9.00000000       9.00000000      10.00000000       9.00000000      10.00000000      10.00000000
        10.00000000      10.00000000      10.00000000      10.00000000       9.00000000      10.00000000       9.00000000      10.00000000      10.00000000      10.00000000       7.00000000       7.00000000       7.00000000       8.00000000       8.00000000       8.00000000       9.00000000       8.00000000       6.00000000       8.00000000
        10.00000000       9.00000000      10.00000000      10.00000000      10.00000000       9.00000000      11.00000000       9.00000000       9.00000000      10.00000000       7.00000000       9.00000000      10.00000000      11.00000000      10.00000000      10.00000000       9.00000000       9.00000000      10.00000000      10.00000000
        10.00000000      10.00000000      10.00000000       9.00000000      10.00000000      10.00000000      10.00000000      10.00000000      10.00000000      10.00000000       9.00000000      10.00000000       9.00000000      10.00000000      10.00000000      10.00000000      10.00000000      10.00000000      10.00000000       9.00000000
        10.00000000      10.00000000      11.00000000      10.00000000      10.00000000      10.00000000      10.00000000      10.00000000       9.00000000      10.00000000       9.00000000      10.00000000      10.00000000       9.00000000       9.00000000      10.00000000      10.00000000      10.00000000      10.00000000      10.00000000
        11.00000000      10.00000000       8.00000000       7.00000000      10.00000000       9.00000000       9.00000000      10.00000000      10.00000000       9.00000000      11.00000000      10.00000000       8.00000000       8.00000000       9.00000000       9.00000000      12.00000000      10.00000000      11.00000000      13.00000000
        13.00000000      10.00000000      13.00000000       8.00000000      15.00000000      14.00000000      16.00000000      16.00000000      16.00000000      17.00000000      17.00000000      16.00000000      18.00000000      17.00000000      14.00000000      14.00000000      15.00000000      14.00000000      16.00000000      15.00000000
        18.00000000      16.00000000      17.00000000      17.00000000      17.00000000      14.00000000      15.00000000      15.00000000       9.00000000       9.00000000      10.00000000      10.00000000       9.00000000       9.00000000       9.00000000       9.00000000       8.00000000      10.00000000      11.00000000      11.00000000
        11.00000000      10.00000000      11.00000000      10.00000000      11.00000000      11.00000000      10.00000000      11.00000000       9.00000000       8.00000000      10.00000000       9.00000000      10.00000000      10.00000000      16.00000000      13.00000000      17.00000000      16.00000000      15.00000000      14.00000000
        13.00000000      11.00000000      12.00000000      14.00000000      16.00000000      14.00000000      16.00000000      12.00000000      16.00000000      11.00000000      17.00000000      10.00000000       9.00000000      12.00000000      17.00000000       7.00000000      15.00000000      10.00000000      10.00000000       1.00000000
       -16.00000000      18.00000000       8.00000000       8.00000000       8.00000000       8.00000000       8.00000000       8.00000000       8.00000000       8.00000000       9.00000000      10.00000000       0.00000000      12.00000000       6.00000000       4.00000000       8.00000000       9.00000000       8.00000000      12.00000000
         8.00000000       8.00000000       8.00000000       8.00000000       8.00000000       8.00000000       7.00000000       7.00000000       7.00000000       7.00000000       8.00000000       7.00000000       8.00000000       8.00000000       8.00000000       7.00000000       7.00000000       7.00000000       7.00000000       7.00000000
         8.00000000       8.00000000       7.00000000       8.00000000       5.00000000      12.00000000       4.00000000       7.00000000       5.00000000       4.00000000       4.00000000       4.00000000       5.00000000       4.00000000       5.00000000       3.00000000       2.00000000       5.00000000       3.00000000       2.00000000
         3.00000000       3.00000000       3.00000000       2.00000000       3.00000000       2.00000000       3.00000000       7.00000000       9.00000000      10.00000000       4.00000000       3.00000000      12.00000000      12.00000000       6.00000000      12.00000000       7.00000000      12.00000000       3.00000000       3.00000000
         2.00000000       2.00000000       2.00000000       4.00000000       2.00000000       2.00000000       3.00000000       2.00000000       1.00000000       5.00000000      12.00000000       2.00000000       7.00000000       4.00000000       2.00000000       4.00000000       3.00000000       4.00000000       1.00000000       1.00000000
         1.00000000       1.00000000       5.00000000       3.00000000       5.00000000       6.00000000       5.00000000       6.00000000       4.00000000       5.00000000       3.00000000       4.00000000       4.00000000       5.00000000       4.00000000       8.00000000       1.00000000       1.00000000       1.00000000       2.00000000
         2.00000000       1.00000000       2.00000000       1.00000000       1.00000000       2.00000000       3.00000000       2.00000000       3.00000000       3.00000000       3.00000000       3.00000000       4.00000000       3.00000000       2.00000000       4.00000000       3.00000000       2.00000000       1.00000000       3.00000000
         7.00000000       7.00000000       6.00000000       8.00000000       6.00000000       6.00000000       5.00000000       6.00000000       6.00000000       6.00000000       3.00000000       3.00000000       3.00000000       2.00000000       3.00000000       3.00000000       3.00000000       3.00000000       3.00000000       3.00000000
         6.00000000       7.00000000       4.00000000       3.00000000       5.00000000       4.00000000       4.00000000       4.00000000       4.00000000       4.00000000       4.00000000       4.00000000       4.00000000       4.00000000       4.00000000       3.00000000       3.00000000       4.00000000       3.00000000       3.00000000
         4.00000000       3.00000000       5.00000000       4.00000000       4.00000000       3.00000000       3.00000000       7.00000000      33.00000000       1.00000000     -16.00000000      -1.00000000      -7.00000000     -16.00000000     -11.00000000      -8.00000000      -5.00000000      -2.00000000       2.00000000       6.00000000
        -5.00000000     -16.00000000     -16.00000000       7.00000000     -13.00000000       1.00000000      10.00000000       3.00000000       9.00000000      69.00000000       3.00000000       0.00000000       2.00000000       2.00000000       2.00000000       2.00000000       1.00000000       1.00000000       2.00000000       3.00000000
         2.00000000       2.00000000       3.00000000       3.00000000       3.00000000       6.00000000       3.00000000       4.00000000       2.00000000      10.00000000       2.00000000       8.00000000       5.00000000       9.00000000       5.00000000       3.00000000      10.00000000       9.00000000      10.00000000      10.00000000
        10.00000000       9.00000000      10.00000000      10.00000000      10.00000000      10.00000000       9.00000000       9.00000000      10.00000000       9.00000000       9.00000000       9.00000000       9.00000000       9.00000000       9.00000000       9.00000000      10.00000000      10.00000000      10.00000000      10.00000000
        10.00000000      10.00000000       9.00000000       9.00000000       7.00000000       9.00000000      10.00000000      10.00000000       9.00000000      10.00000000      10.00000000       8.00000000       9.00000000       8.00000000       7.00000000       9.00000000      10.00000000       9.00000000       8.00000000      10.00000000
        10.00000000       7.00000000       5.00000000       9.00000000       2.00000000       2.00000000       3.00000000       2.00000000       1.00000000       2.00000000       1.00000000       1.00000000       2.00000000       1.00000000       1.00000000       1.00000000       0.00000000       1.00000000       1.00000000       1.00000000
         1.00000000       1.00000000       1.00000000       0.00000000       3.00000000       1.00000000       1.00000000       1.00000000       3.00000000       2.00000000       3.00000000       3.00000000       2.00000000       3.00000000       3.00000000       2.00000000       1.00000000       1.00000000       0.00000000       1.00000000
         1.00000000       2.00000000       1.00000000       1.00000000       1.00000000       1.00000000       3.00000000       2.00000000       3.00000000       0.00000000       7.00000000       8.00000000       7.00000000       7.00000000       7.00000000       7.00000000       6.00000000       7.00000000       9.00000000       7.00000000
         7.00000000       7.00000000       7.00000000       7.00000000       7.00000000       6.00000000       6.00000000       7.00000000       7.00000000       6.00000000       7.00000000       7.00000000       6.00000000       1.00000000       0.00000000       4.00000000       1.00000000       1.00000000       0.00000000       5.00000000
         1.00000000       1.00000000       6.00000000       6.00000000       6.00000000       6.00000000       6.00000000       4.00000000       0.00000000       6.00000000       6.00000000       7.00000000       1.00000000       7.00000000       1.00000000       6.00000000       1.00000000       0.00000000       3.00000000       6.00000000
         4.00000000       7.00000000       2.00000000       2.00000000       3.00000000       5.00000000      19.00000000       3.00000000       2.00000000       3.00000000       3.00000000       3.00000000       3.00000000       3.00000000       3.00000000       3.00000000       4.00000000       3.00000000       4.00000000       5.00000000
         5.00000000       2.00000000      20.00000000      20.00000000      21.00000000      21.00000000      21.00000000      21.00000000      20.00000000      21.00000000      21.00000000      21.00000000      20.00000000      18.00000000      20.00000000      19.00000000      21.00000000      21.00000000      21.00000000      21.00000000
        20.00000000      21.00000000      21.00000000      17.00000000      10.00000000      19.00000000      17.00000000      14.00000000      17.00000000      16.00000000      18.00000000      15.00000000      19.00000000      17.00000000      16.00000000      18.00000000       4.00000000       4.00000000      15.00000000       5.00000000
        17.00000000      16.00000000      17.00000000      16.00000000      17.00000000      15.00000000      18.00000000       4.00000000      21.00000000      20.00000000      21.00000000      21.00000000      22.00000000      21.00000000      22.00000000      22.00000000      21.00000000      22.00000000      20.00000000      21.00000000
        21.00000000      18.00000000      22.00000000      22.00000000      22.00000000      22.00000000      22.00000000      20.00000000      22.00000000      20.00000000      21.00000000      21.00000000      20.00000000       2.00000000       4.00000000       4.00000000       4.00000000       4.00000000       4.00000000       4.00000000
         4.00000000       4.00000000       4.00000000       4.00000000       4.00000000       5.00000000       4.00000000       4.00000000       4.00000000       4.00000000       4.00000000       4.00000000       4.00000000       4.00000000       4.00000000       5.00000000       4.00000000       4.00000000       5.00000000       4.00000000
         5.00000000       5.00000000       9.00000000       5.00000000       6.00000000       8.00000000       4.00000000       4.00000000       5.00000000       4.00000000       5.00000000       7.00000000       8.00000000       5.00000000       5.00000000       4.00000000      10.00000000       4.00000000       4.00000000       8.00000000
         4.00000000      20.00000000       5.00000000       4.00000000       4.00000000       5.00000000       4.00000000       4.00000000      20.00000000      19.00000000      20.00000000      20.00000000      19.00000000      20.00000000       9.00000000      19.00000000      17.00000000      19.00000000      19.00000000      18.00000000
         4.00000000      19.00000000       4.00000000       4.00000000      15.00000000       4.00000000       4.00000000       3.00000000       4.00000000      11.00000000       4.00000000       4.00000000      18.00000000       4.00000000       4.00000000       4.00000000       3.00000000      17.00000000       3.00000000       4.00000000
         4.00000000      18.00000000       4.00000000       4.00000000       4.00000000      15.00000000      20.00000000       6.00000000       2.00000000       8.00000000       6.00000000       6.00000000       7.00000000       7.00000000       7.00000000       7.00000000       8.00000000       7.00000000       7.00000000       6.00000000
         6.00000000       6.00000000       6.00000000       6.00000000       6.00000000       6.00000000       6.00000000       6.00000000       7.00000000       6.00000000       7.00000000       5.00000000       8.00000000       7.00000000       8.00000000       8.00000000      10.00000000      11.00000000      10.00000000       9.00000000
         8.00000000      10.00000000       8.00000000       7.00000000       7.00000000       6.00000000       8.00000000       9.00000000       9.00000000       8.00000000       8.00000000       8.00000000       9.00000000       8.00000000       8.00000000       7.00000000       4.00000000       5.00000000       5.00000000       4.00000000
         5.00000000       5.00000000       4.00000000       5.00000000       5.00000000       4.00000000       3.00000000       3.00000000       3.00000000       3.00000000       4.00000000       4.00000000       4.00000000       3.00000000       4.00000000       3.00000000       5.00000000       4.00000000       5.00000000       5.00000000
         5.00000000       5.00000000       6.00000000       6.00000000       8.00000000       6.00000000       5.00000000       6.00000000       4.00000000       4.00000000       4.00000000       4.00000000       4.00000000       5.00000000       5.00000000       4.00000000       5.00000000       4.00000000       7.00000000       5.00000000
         6.00000000       6.00000000      10.00000000       5.00000000      12.00000000      15.00000000      13.00000000      12.00000000      14.00000000      15.00000000      16.00000000      15.00000000      16.00000000      14.00000000      11.00000000      11.00000000      13.00000000      11.00000000      15.00000000      15.00000000
        15.00000000      12.00000000      13.00000000      13.00000000      15.00000000      10.00000000      17.00000000      16.00000000      17.00000000      17.00000000      19.00000000      20.00000000      21.00000000      19.00000000      16.00000000      19.00000000      16.00000000      17.00000000      17.00000000      16.00000000
        15.00000000      15.00000000      18.00000000      16.00000000      18.00000000      15.00000000      22.00000000      16.00000000      18.00000000      15.00000000      11.00000000      10.00000000      11.00000000      10.00000000      13.00000000      12.00000000      14.00000000      13.00000000      13.00000000      13.00000000
        10.00000000      10.00000000      11.00000000       9.00000000      11.00000000      12.00000000      12.00000000      11.00000000      11.00000000      12.00000000      13.00000000       9.00000000      13.00000000      14.00000000      14.00000000      13.00000000       9.00000000       9.00000000       9.00000000      15.00000000
        14.00000000      21.00000000       9.00000000      12.00000000       9.00000000       9.00000000       9.00000000       9.00000000       9.00000000       9.00000000       9.00000000       9.00000000       9.00000000       4.00000000      14.00000000      10.00000000       9.00000000      11.00000000      14.00000000       4.00000000
        10.00000000       7.00000000       5.00000000       9.00000000      16.00000000      -2.00000000      11.00000000      69.00000000      10.00000000      85.00000000      10.00000000      77.00000000      91.00000000      10.00000000      10.00000000      10.00000000      10.00000000      15.00000000      11.00000000      10.00000000
        12.00000000      14.00000000      10.00000000      10.00000000      11.00000000      12.00000000       9.00000000     -15.00000000      97.00000000      11.00000000      11.00000000      21.00000000      90.00000000      10.00000000      -2.00000000       9.00000000       8.00000000      11.00000000      12.00000000       9.00000000
        10.00000000      10.00000000       9.00000000      10.00000000      13.00000000      10.00000000       9.00000000      87.00000000     -15.00000000      12.00000000      11.00000000       8.00000000       7.00000000      11.00000000       9.00000000       9.00000000       9.00000000       9.00000000      10.00000000       9.00000000
         7.00000000       8.00000000       8.00000000       8.00000000       9.00000000       9.00000000       9.00000000       9.00000000       9.00000000       9.00000000      10.00000000       7.00000000       9.00000000       9.00000000      10.00000000       9.00000000      10.00000000      10.00000000       9.00000000       9.00000000
         9.00000000      10.00000000       9.00000000       9.00000000      10.00000000       9.00000000       9.00000000      10.00000000       9.00000000       9.00000000       9.00000000       9.00000000       9.00000000       9.00000000       9.00000000       9.00000000      22.00000000      -4.00000000      20.00000000      20.00000000
        19.00000000      21.00000000     110.00000000     -16.00000000      48.00000000     112.00000000     106.00000000      20.00000000      26.00000000      20.00000000      25.00000000       9.00000000       5.00000000       9.00000000      10.00000000       9.00000000      20.00000000       8.00000000       7.00000000      12.00000000
         9.00000000      10.00000000      22.00000000       9.00000000       9.00000000       9.00000000       9.00000000      10.00000000      -1.00000000      10.00000000      10.00000000      10.00000000      10.00000000      10.00000000      10.00000000      10.00000000       9.00000000       9.00000000      10.00000000      10.00000000
        83.00000000     108.00000000       9.00000000      10.00000000      12.00000000       8.00000000       5.00000000       5.00000000       5.00000000       5.00000000       6.00000000       5.00000000      12.00000000       5.00000000      12.00000000      13.00000000      14.00000000      12.00000000       5.00000000       5.00000000
         5.00000000       5.00000000      15.00000000      13.00000000       8.00000000      12.00000000      10.00000000      10.00000000      10.00000000      10.00000000      10.00000000       9.00000000      10.00000000       9.00000000      10.00000000       9.00000000      10.00000000      10.00000000      10.00000000      10.00000000
         9.00000000       9.00000000       9.00000000      10.00000000      10.00000000       9.00000000      10.00000000      10.00000000      10.00000000      10.00000000       9.00000000      20.00000000      -2.00000000       6.00000000       9.00000000      10.00000000       9.00000000       9.00000000       9.00000000       9.00000000