# File generated by Flopy version 3.9.1 on 02/09/2026 at 23:51:35.
BEGIN options
  SAVE_FLOWS
END options

BEGIN dimensions
  MAXBOUND  17182
END dimensions

BEGIN period  1
  1 1 0.00000000E+00
  1 2 0.00000000E+00
  1 3 0.00000000E+00
  1 4 0.00000000E+00
  1 5 0.00000000E+00
  1 6 0.00000000E+00
  1 7 0.00000000E+00
  1 8 0.00000000E+00
  1 9 0.00000000E+00
  1 10 0.00000000E+00
  1 11 0.00000000E+00
  1 12 0.00000000E+00
  1 13 0.00000000E+00
  1 14 0.00000000E+00
  1 15 0.00000000E+00
  1 16 0.00000000E+00
  1 17 0.00000000E+00
  1 18 0.00000000E+00
  1 19 0.00000000E+00
  1 20 0.00000000E+00
  1 21 0.00000000E+00
  1 22 0.00000000E+00
  1 23 0.00000000E+00
  1 24 0.00000000E+00
  1 25 0.00000000E+00
  1 26 0.00000000E+00
  1 27 0.00000000E+00
  1 28 0.00000000E+00
  1 29 0.00000000E+00
  1 30 0.00000000E+00
  1 31 0.00000000E+00
  1 32 0.00000000E+00
  1 33 0.00000000E+00
  1 34 0.00000000E+00
  1 260 0.00000000E+00
  1 261 0.00000000E+00
  1 262 0.00000000E+00
  1 263 0.00000000E+00
  1 264 0.00000000E+00
  1 265 0.00000000E+00
  1 266 0.00000000E+00
  1 267 0.00000000E+00
  1 268 0.00000000E+00
  1 269 0.00000000E+00
  1 270 0.00000000E+00
  1 271 0.00000000E+00
  1 272 0.00000000E+00
  1 273 0.00000000E+00
  1 274 0.00000000E+00
  1 275 0.00000000E+00
  1 276 0.00000000E+00
  1 277 0.00000000E+00
  1 278 0.00000000E+00
  1 279 0.00000000E+00
  1 280 0.00000000E+00
  1 281 0.00000000E+00
  1 282 0.00000000E+00
  1 283 0.00000000E+00
  1 284 0.00000000E+00
  1 285 0.00000000E+00
  1 286 0.00000000E+00
  1 287 0.00000000E+00
  1 288 0.00000000E+00
  1 289 0.00000000E+00
  1 290 0.00000000E+00
  1 291 0.00000000E+00
  1 292 0.00000000E+00
  1 293 0.00000000E+00
  1 294 0.00000000E+00
  1 295 0.00000000E+00
  1 296 0.00000000E+00
  1 297 0.00000000E+00
  1 298 0.00000000E+00
  1 299 0.00000000E+00
  1 300 0.00000000E+00
  1 301 0.00000000E+00
  1 302 0.00000000E+00
  1 303 0.00000000E+00
  1 304 0.00000000E+00
  1 305 0.00000000E+00
  1 306 0.00000000E+00
  1 307 0.00000000E+00
  1 308 0.00000000E+00
  1 309 0.00000000E+00
  1 310 0.00000000E+00
  1 311 0.00000000E+00
  1 312 0.00000000E+00
  1 313 0.00000000E+00
  1 314 0.00000000E+00
  1 315 0.00000000E+00
  1 316 0.00000000E+00
  1 317 0.00000000E+00
  1 318 0.00000000E+00
  1 319 0.00000000E+00
  1 320 0.00000000E+00
  1 321 0.00000000E+00
  1 322 0.00000000E+00
  1 323 0.00000000E+00
  1 324 0.00000000E+00
  1 325 0.00000000E+00
  1 326 0.00000000E+00
  1 327 0.00000000E+00
  1 328 0.00000000E+00
  1 329 0.00000000E+00
  1 330 0.00000000E+00
  1 331 0.00000000E+00
  1 332 0.00000000E+00
  1 333 0.00000000E+00
  1 334 0.00000000E+00
  1 335 0.00000000E+00
  1 336 0.00000000E+00
  1 337 0.00000000E+00
  1 338 0.00000000E+00
  1 339 0.00000000E+00
  1 340 0.00000000E+00
  1 341 0.00000000E+00
  1 342 0.00000000E+00
  1 343 0.00000000E+00
  1 344 0.00000000E+00
  1 345 0.00000000E+00
  1 346 0.00000000E+00
  1 347 0.00000000E+00
  1 348 0.00000000E+00
  1 349 0.00000000E+00
  1 350 0.00000000E+00
  1 351 0.00000000E+00
  1 352 0.00000000E+00
  1 353 0.00000000E+00
  1 354 0.00000000E+00
  1 355 0.00000000E+00
  1 356 0.00000000E+00
  1 357 0.00000000E+00
  1 358 0.00000000E+00
  1 359 0.00000000E+00
  1 360 0.00000000E+00
  1 361 0.00000000E+00
  1 362 0.00000000E+00
  1 363 0.00000000E+00
  1 364 0.00000000E+00
  1 365 0.00000000E+00
  1 366 0.00000000E+00
  1 367 0.00000000E+00
  1 368 0.00000000E+00
  1 369 0.00000000E+00
  1 370 0.00000000E+00
  1 371 0.00000000E+00
  1 372 0.00000000E+00
  1 373 0.00000000E+00
  1 374 0.00000000E+00
  1 375 0.00000000E+00
  1 376 0.00000000E+00
  1 377 0.00000000E+00
  1 378 0.00000000E+00
  1 379 0.00000000E+00
  1 380 0.00000000E+00
  1 381 0.00000000E+00
  1 382 0.00000000E+00
  1 383 0.00000000E+00
  1 384 0.00000000E+00
  1 385 0.00000000E+00
  1 386 0.00000000E+00
  1 387 0.00000000E+00
  1 388 0.00000000E+00
  1 389 0.00000000E+00
  1 390 0.00000000E+00
  1 391 0.00000000E+00
  1 392 0.00000000E+00
  1 393 0.00000000E+00
  1 394 0.00000000E+00
  1 395 0.00000000E+00
  1 396 0.00000000E+00
  1 397 0.00000000E+00
  1 398 0.00000000E+00
  1 399 0.00000000E+00
  1 400 0.00000000E+00
  1 401 0.00000000E+00
  1 402 0.00000000E+00
  1 403 0.00000000E+00
  1 404 0.00000000E+00
  1 405 0.00000000E+00
  1 406 0.00000000E+00
  1 407 0.00000000E+00
  1 408 0.00000000E+00
  1 409 0.00000000E+00
  1 410 0.00000000E+00
  1 411 0.00000000E+00
  1 412 0.00000000E+00
  1 413 0.00000000E+00
  1 414 0.00000000E+00
  1 415 0.00000000E+00
  1 416 0.00000000E+00
  1 417 0.00000000E+00
  1 418 0.00000000E+00
  1 419 0.00000000E+00
  1 420 0.00000000E+00
  1 421 0.00000000E+00
  1 422 0.00000000E+00
  1 423 0.00000000E+00
  1 424 0.00000000E+00
  1 425 0.00000000E+00
  1 426 0.00000000E+00
  1 427 0.00000000E+00
  1 428 0.00000000E+00
  1 429 0.00000000E+00
  1 430 0.00000000E+00
  1 431 0.00000000E+00
  1 432 0.00000000E+00
  1 433 0.00000000E+00
  1 434 0.00000000E+00
  1 435 0.00000000E+00
  1 436 0.00000000E+00
  1 437 0.00000000E+00
  1 438 0.00000000E+00
  1 439 0.00000000E+00
  1 440 0.00000000E+00
  1 441 0.00000000E+00
  1 442 0.00000000E+00
  1 443 0.00000000E+00
  1 444 0.00000000E+00
  1 445 0.00000000E+00
  1 446 0.00000000E+00
  1 447 0.00000000E+00
  1 448 0.00000000E+00
  1 449 0.00000000E+00
  1 450 0.00000000E+00
  1 451 0.00000000E+00
  1 452 0.00000000E+00
  1 453 0.00000000E+00
  1 454 0.00000000E+00
  1 455 0.00000000E+00
  1 456 0.00000000E+00
  1 457 0.00000000E+00
  1 458 0.00000000E+00
  1 459 0.00000000E+00
  1 460 0.00000000E+00
  1 461 0.00000000E+00
  1 462 0.00000000E+00
  1 463 0.00000000E+00
  1 464 0.00000000E+00
  1 465 0.00000000E+00
  1 466 0.00000000E+00
  1 467 0.00000000E+00
  1 468 0.00000000E+00
  1 469 0.00000000E+00
  1 470 0.00000000E+00
  1 471 0.00000000E+00
  1 472 0.00000000E+00
  1 473 0.00000000E+00
  1 474 0.00000000E+00
  1 475 0.00000000E+00
  1 476 0.00000000E+00
  1 477 0.00000000E+00
  1 478 0.00000000E+00
  1 479 0.00000000E+00
  1 480 0.00000000E+00
  1 481 0.00000000E+00
  1 482 0.00000000E+00
  1 483 0.00000000E+00
  1 484 0.00000000E+00
  1 485 0.00000000E+00
  1 486 0.00000000E+00
  1 487 0.00000000E+00
  1 488 0.00000000E+00
  1 489 0.00000000E+00
  1 490 0.00000000E+00
  1 491 0.00000000E+00
  1 492 0.00000000E+00
  1 493 0.00000000E+00
  1 494 0.00000000E+00
  1 495 0.00000000E+00
  1 496 0.00000000E+00
  1 497 0.00000000E+00
  1 498 0.00000000E+00
  1 499 0.00000000E+00
  1 500 0.00000000E+00
  1 501 0.00000000E+00
  1 502 0.00000000E+00
  1 503 0.00000000E+00
  1 504 0.00000000E+00
  1 505 0.00000000E+00
  1 506 0.00000000E+00
  1 507 0.00000000E+00
  1 508 0.00000000E+00
  1 509 0.00000000E+00
  1 510 0.00000000E+00
  1 511 0.00000000E+00
  1 512 0.00000000E+00
  1 513 0.00000000E+00
  1 514 0.00000000E+00
  1 515 0.00000000E+00
  1 516 0.00000000E+00
  1 517 0.00000000E+00
  1 518 0.00000000E+00
  1 519 0.00000000E+00
  1 520 0.00000000E+00
  1 521 0.00000000E+00
  1 522 0.00000000E+00
  1 523 0.00000000E+00
  1 524 0.00000000E+00
  1 525 0.00000000E+00
  1 526 0.00000000E+00
  1 527 0.00000000E+00
  1 528 0.00000000E+00
  1 529 0.00000000E+00
  1 530 0.00000000E+00
  1 531 0.00000000E+00
  1 532 0.00000000E+00
  1 533 0.00000000E+00
  1 534 0.00000000E+00
  1 535 0.00000000E+00
  1 536 0.00000000E+00
  1 537 0.00000000E+00
  1 538 0.00000000E+00
  1 539 0.00000000E+00
  1 540 0.00000000E+00
  1 541 0.00000000E+00
  1 542 0.00000000E+00
  1 543 0.00000000E+00
  1 544 0.00000000E+00
  1 545 0.00000000E+00
  1 546 0.00000000E+00
  1 547 0.00000000E+00
  1 548 0.00000000E+00
  1 549 0.00000000E+00
  1 550 0.00000000E+00
  1 551 0.00000000E+00
  1 552 0.00000000E+00
  1 553 0.00000000E+00
  1 554 0.00000000E+00
  1 555 0.00000000E+00
  1 556 0.00000000E+00
  1 557 0.00000000E+00
  1 558 0.00000000E+00
  1 559 0.00000000E+00
  1 560 0.00000000E+00
  1 561 0.00000000E+00
  1 562 0.00000000E+00
  1 563 0.00000000E+00
  1 564 0.00000000E+00
  1 565 0.00000000E+00
  1 566 0.00000000E+00
  1 567 0.00000000E+00
  1 568 0.00000000E+00
  1 569 0.00000000E+00
  1 570 0.00000000E+00
  1 571 0.00000000E+00
  1 572 0.00000000E+00
  1 573 0.00000000E+00
  1 574 0.00000000E+00
  1 575 0.00000000E+00
  1 576 0.00000000E+00
  1 577 0.00000000E+00
  1 578 0.00000000E+00
  1 579 0.00000000E+00
  1 580 0.00000000E+00
  1 581 0.00000000E+00
  1 582 0.00000000E+00
  1 583 0.00000000E+00
  1 584 0.00000000E+00
  1 585 0.00000000E+00
  1 586 0.00000000E+00
  1 587 0.00000000E+00
  1 588 0.00000000E+00
  1 589 0.00000000E+00
  1 590 0.00000000E+00
  1 591 0.00000000E+00
  1 592 0.00000000E+00
  1 593 0.00000000E+00
  1 594 0.00000000E+00
  1 595 0.00000000E+00
  1 596 0.00000000E+00
  1 597 0.00000000E+00
  1 598 0.00000000E+00
  1 599 0.00000000E+00
  1 600 0.00000000E+00
  1 601 0.00000000E+00
  1 602 0.00000000E+00
  1 603 0.00000000E+00
  1 604 0.00000000E+00
  1 605 0.00000000E+00
  1 606 0.00000000E+00
  1 607 0.00000000E+00
  1 608 0.00000000E+00
  1 609 0.00000000E+00
  1 610 0.00000000E+00
  1 611 0.00000000E+00
  1 612 0.00000000E+00
  1 613 0.00000000E+00
  1 614 0.00000000E+00
  1 615 0.00000000E+00
  1 616 0.00000000E+00
  1 617 0.00000000E+00
  1 618 0.00000000E+00
  1 619 0.00000000E+00
  1 620 0.00000000E+00
  1 621 0.00000000E+00
  1 622 0.00000000E+00
  1 623 0.00000000E+00
  1 624 0.00000000E+00
  1 625 0.00000000E+00
  1 626 0.00000000E+00
  1 627 0.00000000E+00
  1 628 0.00000000E+00
  1 629 0.00000000E+00
  1 630 0.00000000E+00
  1 631 0.00000000E+00
  1 632 0.00000000E+00
  1 633 0.00000000E+00
  1 634 0.00000000E+00
  1 635 0.00000000E+00
  1 636 0.00000000E+00
  1 637 0.00000000E+00
  1 638 0.00000000E+00
  1 639 0.00000000E+00
  1 640 0.00000000E+00
  1 641 0.00000000E+00
  1 642 0.00000000E+00
  1 6141 0.00000000E+00
  1 6142 0.00000000E+00
  1 6143 0.00000000E+00
  1 6144 0.00000000E+00
  1 6145 0.00000000E+00
  1 6146 0.00000000E+00
  1 6147 0.00000000E+00
  1 6148 0.00000000E+00
  1 6149 0.00000000E+00
  1 6150 0.00000000E+00
  1 6151 0.00000000E+00
  1 6152 0.00000000E+00
  1 6208 0.00000000E+00
  1 6209 0.00000000E+00
  1 6210 0.00000000E+00
  1 6211 0.00000000E+00
  1 6212 0.00000000E+00
  1 6213 0.00000000E+00
  1 6214 0.00000000E+00
  1 6215 0.00000000E+00
  1 6216 0.00000000E+00
  1 6217 0.00000000E+00
  1 6218 0.00000000E+00
  1 6219 0.00000000E+00
  1 6220 0.00000000E+00
  1 6221 0.00000000E+00
  1 6222 0.00000000E+00
  1 6223 0.00000000E+00
  1 6224 0.00000000E+00
  1 6225 0.00000000E+00
  1 6226 0.00000000E+00
  1 6227 0.00000000E+00
  1 6228 0.00000000E+00
  1 6229 0.00000000E+00
  1 6230 0.00000000E+00
  1 6231 0.00000000E+00
  1 6232 0.00000000E+00
  1 6233 0.00000000E+00
  1 6234 0.00000000E+00
  1 6235 0.00000000E+00
  1 6236 0.00000000E+00
  1 6237 0.00000000E+00
  1 6238 0.00000000E+00
  1 6239 0.00000000E+00
  1 6240 0.00000000E+00
  1 6241 0.00000000E+00
  1 6242 0.00000000E+00
  1 6243 0.00000000E+00
  1 6244 0.00000000E+00
  1 6245 0.00000000E+00
  1 6246 0.00000000E+00
  1 6247 0.00000000E+00
  1 6248 0.00000000E+00
  1 6249 0.00000000E+00
  1 6250 0.00000000E+00
  1 6251 0.00000000E+00
  1 6252 0.00000000E+00
  1 6253 0.00000000E+00
  1 6254 0.00000000E+00
  1 6255 0.00000000E+00
  1 6256 0.00000000E+00
  1 6257 0.00000000E+00
  1 6258 0.00000000E+00
  1 6259 0.00000000E+00
  1 6260 0.00000000E+00
  1 6261 0.00000000E+00
  1 6262 0.00000000E+00
  1 6263 0.00000000E+00
  1 6264 0.00000000E+00
  1 6265 0.00000000E+00
  1 6266 0.00000000E+00
  1 6267 0.00000000E+00
  1 6268 0.00000000E+00
  1 6269 0.00000000E+00
  1 6270 0.00000000E+00
  1 6271 0.00000000E+00
  1 6272 0.00000000E+00
  1 6273 0.00000000E+00
  1 6274 0.00000000E+00
  1 6275 0.00000000E+00
  1 6276 0.00000000E+00
  1 6277 0.00000000E+00
  1 6278 0.00000000E+00
  1 6279 0.00000000E+00
  1 6280 0.00000000E+00
  1 6281 0.00000000E+00
  1 6285 0.00000000E+00
  1 6286 0.00000000E+00
  1 6287 0.00000000E+00
  1 6289 0.00000000E+00
  1 6290 0.00000000E+00
  1 6292 0.00000000E+00
  1 6295 0.00000000E+00
  1 6302 0.00000000E+00
  1 6306 0.00000000E+00
  1 6308 0.00000000E+00
  1 6309 0.00000000E+00
  1 6310 0.00000000E+00
  1 6315 0.00000000E+00
  1 6318 0.00000000E+00
  1 6319 0.00000000E+00
  1 6322 0.00000000E+00
  1 6323 0.00000000E+00
  1 6378 0.00000000E+00
  1 6379 0.00000000E+00
  1 6380 0.00000000E+00
  1 6381 0.00000000E+00
  1 6382 0.00000000E+00
  1 6383 0.00000000E+00
  1 6384 0.00000000E+00
  1 6385 0.00000000E+00
  1 6388 0.00000000E+00
  1 6389 0.00000000E+00
  1 6390 0.00000000E+00
  1 6391 0.00000000E+00
  1 6392 0.00000000E+00
  1 6393 0.00000000E+00
  1 6394 0.00000000E+00
  1 6395 0.00000000E+00
  1 6396 0.00000000E+00
  1 6451 0.00000000E+00
  1 6452 0.00000000E+00
  1 6453 0.00000000E+00
  1 6454 0.00000000E+00
  1 6455 0.00000000E+00
  1 6456 0.00000000E+00
  1 6457 0.00000000E+00
  1 6458 0.00000000E+00
  1 6459 0.00000000E+00
  1 6460 0.00000000E+00
  1 6461 0.00000000E+00
  1 6462 0.00000000E+00
  1 6463 0.00000000E+00
  1 6464 0.00000000E+00
  1 6465 0.00000000E+00
  1 6466 0.00000000E+00
  1 6467 0.00000000E+00
  1 6468 0.00000000E+00
  1 6469 0.00000000E+00
  1 6470 0.00000000E+00
  1 6471 0.00000000E+00
  1 6472 0.00000000E+00
  1 6473 0.00000000E+00
  1 6474 0.00000000E+00
  1 6475 0.00000000E+00
  1 6476 0.00000000E+00
  1 6477 0.00000000E+00
  1 6478 0.00000000E+00
  1 6479 0.00000000E+00
  1 6480 0.00000000E+00
  1 6481 0.00000000E+00
  1 6482 0.00000000E+00
  1 6483 0.00000000E+00
  1 6484 0.00000000E+00
  1 6485 0.00000000E+00
  1 6486 0.00000000E+00
  1 6487 0.00000000E+00
  1 6488 0.00000000E+00
  1 6489 0.00000000E+00
  1 6490 0.00000000E+00
  1 6491 0.00000000E+00
  1 6492 0.00000000E+00
  1 6495 0.00000000E+00
  1 6496 0.00000000E+00
  1 6502 0.00000000E+00
  1 6505 0.00000000E+00
  1 6507 0.00000000E+00
  1 6508 0.00000000E+00
  1 6509 0.00000000E+00
  1 6510 0.00000000E+00
  1 6511 0.00000000E+00
  1 6512 0.00000000E+00
  1 6515 0.00000000E+00
  1 6519 0.00000000E+00
  1 6522 0.00000000E+00
  1 6524 0.00000000E+00
  1 6526 0.00000000E+00
  1 6527 0.00000000E+00
  1 6528 0.00000000E+00
  1 6535 0.00000000E+00
  1 6536 0.00000000E+00
  1 6537 0.00000000E+00
  1 6538 0.00000000E+00
  1 6541 0.00000000E+00
  1 6542 0.00000000E+00
  1 6545 0.00000000E+00
  1 6546 0.00000000E+00
  1 6549 0.00000000E+00
  1 6551 0.00000000E+00
  1 6554 0.00000000E+00
  1 6602 0.00000000E+00
  1 6603 0.00000000E+00
  1 6604 0.00000000E+00
  1 6605 0.00000000E+00
  1 6606 0.00000000E+00
  1 6607 0.00000000E+00
  1 6609 0.00000000E+00
  1 6610 0.00000000E+00
  1 6664 0.00000000E+00
  1 6765 0.00000000E+00
  1 6766 0.00000000E+00
  1 6767 0.00000000E+00
  1 6768 0.00000000E+00
  1 6769 0.00000000E+00
  1 6770 0.00000000E+00
  1 6771 0.00000000E+00
  1 6817 0.00000000E+00
  1 6819 0.00000000E+00
  1 6820 0.00000000E+00
  1 6821 0.00000000E+00
  1 6822 0.00000000E+00
  1 6823 0.00000000E+00
  1 6824 0.00000000E+00
  1 6825 0.00000000E+00
  1 6826 0.00000000E+00
  1 6827 0.00000000E+00
  1 6828 0.00000000E+00
  1 6829 0.00000000E+00
  1 6830 0.00000000E+00
  1 6831 0.00000000E+00
  1 6832 0.00000000E+00
  1 6833 0.00000000E+00
  1 6834 0.00000000E+00
  1 6835 0.00000000E+00
  1 6836 0.00000000E+00
  1 6837 0.00000000E+00
  1 6838 0.00000000E+00
  1 6839 0.00000000E+00
  1 6840 0.00000000E+00
  1 6841 0.00000000E+00
  1 6842 0.00000000E+00
  1 6843 0.00000000E+00
  1 6844 0.00000000E+00
  1 6845 0.00000000E+00
  1 6846 0.00000000E+00
  1 6847 0.00000000E+00
  1 6848 0.00000000E+00
  1 6849 0.00000000E+00
  1 6850 0.00000000E+00
  1 6851 0.00000000E+00
  1 6852 0.00000000E+00
  1 6853 0.00000000E+00
  1 6854 0.00000000E+00
  1 6856 0.00000000E+00
  1 6857 0.00000000E+00
  1 6858 0.00000000E+00
  1 6859 0.00000000E+00
  1 6860 0.00000000E+00
  1 6861 0.00000000E+00
  1 6862 0.00000000E+00
  1 6863 0.00000000E+00
  1 6866 0.00000000E+00
  1 6867 0.00000000E+00
  1 6872 0.00000000E+00
  1 6875 0.00000000E+00
  1 6878 0.00000000E+00
  1 6880 0.00000000E+00
  1 6881 0.00000000E+00
  1 6882 0.00000000E+00
  1 6894 0.00000000E+00
  1 6896 0.00000000E+00
  1 6904 0.00000000E+00
  1 6907 0.00000000E+00
  1 6909 0.00000000E+00
  1 6910 0.00000000E+00
  1 6913 0.00000000E+00
  1 6917 0.00000000E+00
  1 6919 0.00000000E+00
  1 6960 0.00000000E+00
  1 6967 0.00000000E+00
  1 6970 0.00000000E+00
  1 6971 0.00000000E+00
  1 7018 0.00000000E+00
  1 7080 0.00000000E+00
  1 7081 0.00000000E+00
  1 7082 0.00000000E+00
  1 7119 0.00000000E+00
  1 7120 0.00000000E+00
  1 7121 0.00000000E+00
  1 7123 0.00000000E+00
  1 7127 0.00000000E+00
  1 7130 0.00000000E+00
  1 7131 0.00000000E+00
  1 7132 0.00000000E+00
  1 7166 0.00000000E+00
  1 7175 0.00000000E+00
  1 7181 0.00000000E+00
  1 7182 0.00000000E+00
  1 7183 0.00000000E+00
  1 7184 0.00000000E+00
  1 7185 0.00000000E+00
  1 7186 0.00000000E+00
  1 7231 0.00000000E+00
  1 7232 0.00000000E+00
  1 7233 0.00000000E+00
  1 7234 0.00000000E+00
  1 7235 0.00000000E+00
  1 7237 0.00000000E+00
  1 7238 0.00000000E+00
  1 7239 0.00000000E+00
  1 7240 0.00000000E+00
  1 7241 0.00000000E+00
  1 7242 0.00000000E+00
  1 7243 0.00000000E+00
  1 7244 0.00000000E+00
  1 7245 0.00000000E+00
  1 7247 0.00000000E+00
  1 7248 0.00000000E+00
  1 7249 0.00000000E+00
  1 7250 0.00000000E+00
  1 7252 0.00000000E+00
  1 7254 0.00000000E+00
  1 7255 0.00000000E+00
  1 7256 0.00000000E+00
  1 7257 0.00000000E+00
  1 7258 0.00000000E+00
  1 7259 0.00000000E+00
  1 7260 0.00000000E+00
  1 7261 0.00000000E+00
  1 7262 0.00000000E+00
  1 7263 0.00000000E+00
  1 7264 0.00000000E+00
  1 7265 0.00000000E+00
  1 7267 0.00000000E+00
  1 7269 0.00000000E+00
  1 7270 0.00000000E+00
  1 7271 0.00000000E+00
  1 7272 0.00000000E+00
  1 7273 0.00000000E+00
  1 7274 0.00000000E+00
  1 7275 0.00000000E+00
  1 7278 0.00000000E+00
  1 7279 0.00000000E+00
  1 7288 0.00000000E+00
  1 7291 0.00000000E+00
  1 7292 0.00000000E+00
  1 7293 0.00000000E+00
  1 7307 0.00000000E+00
  1 7315 0.00000000E+00
  1 7316 0.00000000E+00
  1 7319 0.00000000E+00
  1 7323 0.00000000E+00
  1 7324 0.00000000E+00
  1 7328 0.00000000E+00
  1 7374 0.00000000E+00
  1 7375 0.00000000E+00
  1 7380 0.00000000E+00
  1 7455 0.00000000E+00
  1 7495 0.00000000E+00
  1 7496 0.00000000E+00
  1 7497 0.00000000E+00
  1 7498 0.00000000E+00
  1 7499 0.00000000E+00
  1 7500 0.00000000E+00
  1 7501 0.00000000E+00
  1 7507 0.00000000E+00
  1 7508 0.00000000E+00
  1 7512 0.00000000E+00
  1 7549 0.00000000E+00
  1 7579 0.00000000E+00
  1 7587 0.00000000E+00
  1 7588 0.00000000E+00
  1 7592 0.00000000E+00
  1 7593 0.00000000E+00
  1 7594 0.00000000E+00
  1 7595 0.00000000E+00
  1 7596 0.00000000E+00
  1 7620 0.00000000E+00
  1 7631 0.00000000E+00
  1 7632 0.00000000E+00
  1 7633 0.00000000E+00
  1 7634 0.00000000E+00
  1 7635 0.00000000E+00
  1 7636 0.00000000E+00
  1 7637 0.00000000E+00
  1 7682 0.00000000E+00
  1 7683 0.00000000E+00
  1 7684 0.00000000E+00
  1 7685 0.00000000E+00
  1 7686 0.00000000E+00
  1 7687 0.00000000E+00
  1 7688 0.00000000E+00
  1 7689 0.00000000E+00
  1 7690 0.00000000E+00
  1 7691 0.00000000E+00
  1 7692 0.00000000E+00
  1 7693 0.00000000E+00
  1 7694 0.00000000E+00
  1 7695 0.00000000E+00
  1 7696 0.00000000E+00
  1 7697 0.00000000E+00
  1 7699 0.00000000E+00
  1 7700 0.00000000E+00
  1 7701 0.00000000E+00
  1 7706 0.00000000E+00
  1 7707 0.00000000E+00
  1 7708 0.00000000E+00
  1 7709 0.00000000E+00
  1 7710 0.00000000E+00
  1 7711 0.00000000E+00
  1 7712 0.00000000E+00
  1 7713 0.00000000E+00
  1 7714 0.00000000E+00
  1 7715 0.00000000E+00
  1 7716 0.00000000E+00
  1 7720 0.00000000E+00
  1 7721 0.00000000E+00
  1 7722 0.00000000E+00
  1 7723 0.00000000E+00
  1 7724 0.00000000E+00
  1 7725 0.00000000E+00
  1 7726 0.00000000E+00
  1 7728 0.00000000E+00
  1 7729 0.00000000E+00
  1 7730 0.00000000E+00
  1 7731 0.00000000E+00
  1 7734 0.00000000E+00
  1 7735 0.00000000E+00
  1 7741 0.00000000E+00
  1 7743 0.00000000E+00
  1 7744 0.00000000E+00
  1 7745 0.00000000E+00
  1 7746 0.00000000E+00
  1 7747 0.00000000E+00
  1 7768 0.00000000E+00
  1 7779 0.00000000E+00
  1 7815 0.00000000E+00
  1 7816 0.00000000E+00
  1 7819 0.00000000E+00
  1 7820 0.00000000E+00
  1 7882 0.00000000E+00
  1 7899 0.00000000E+00
  1 7900 0.00000000E+00
  1 7901 0.00000000E+00
  1 7902 0.00000000E+00
  1 7903 0.00000000E+00
  1 7904 0.00000000E+00
  1 7905 0.00000000E+00
  1 7907 0.00000000E+00
  1 7909 0.00000000E+00
  1 7951 0.00000000E+00
  1 7959 0.00000000E+00
  1 7960 0.00000000E+00
  1 7962 0.00000000E+00
  1 7963 0.00000000E+00
  1 7964 0.00000000E+00
  1 7965 0.00000000E+00
  1 7966 0.00000000E+00
  1 7989 0.00000000E+00
  1 7990 0.00000000E+00
  1 8015 0.00000000E+00
  1 8016 0.00000000E+00
  1 8018 0.00000000E+00
  1 8020 0.00000000E+00
  1 8021 0.00000000E+00
  1 8025 0.00000000E+00
  1 8026 0.00000000E+00
  1 8027 0.00000000E+00
  1 8028 0.00000000E+00
  1 8029 0.00000000E+00
  1 8030 0.00000000E+00
  1 8031 0.00000000E+00
  1 8032 0.00000000E+00
  1 8039 0.00000000E+00
  1 8040 0.00000000E+00
  1 8041 0.00000000E+00
  1 8042 0.00000000E+00
  1 8043 0.00000000E+00
  1 8044 0.00000000E+00
  1 8045 0.00000000E+00
  1 8046 0.00000000E+00
  1 8047 0.00000000E+00
  1 8048 0.00000000E+00
  1 8049 0.00000000E+00
  1 8050 0.00000000E+00
  1 8051 0.00000000E+00
  1 8052 0.00000000E+00
  1 8053 0.00000000E+00
  1 8054 0.00000000E+00
  1 8055 0.00000000E+00
  1 8056 0.00000000E+00
  1 8057 0.00000000E+00
  1 8059 0.00000000E+00
  1 8060 0.00000000E+00
  1 8061 0.00000000E+00
  1 8062 0.00000000E+00
  1 8063 0.00000000E+00
  1 8064 0.00000000E+00
  1 8065 0.00000000E+00
  1 8066 0.00000000E+00
  1 8067 0.00000000E+00
  1 8068 0.00000000E+00
  1 8069 0.00000000E+00
  1 8070 0.00000000E+00
  1 8071 0.00000000E+00
  1 8072 0.00000000E+00
  1 8073 0.00000000E+00
  1 8074 0.00000000E+00
  1 8075 0.00000000E+00
  1 8076 0.00000000E+00
  1 8077 0.00000000E+00
  1 8078 0.00000000E+00
  1 8080 0.00000000E+00
  1 8081 0.00000000E+00
  1 8082 0.00000000E+00
  1 8083 0.00000000E+00
  1 8084 0.00000000E+00
  1 8085 0.00000000E+00
  1 8086 0.00000000E+00
  1 8087 0.00000000E+00
  1 8088 0.00000000E+00
  1 8089 0.00000000E+00
  1 8098 0.00000000E+00
  1 8125 0.00000000E+00
  1 8126 0.00000000E+00
  1 8127 0.00000000E+00
  1 8128 0.00000000E+00
  1 8129 0.00000000E+00
  1 8192 0.00000000E+00
  1 8194 0.00000000E+00
  1 8195 0.00000000E+00
  1 8196 0.00000000E+00
  1 8223 0.00000000E+00
  1 8224 0.00000000E+00
  1 8225 0.00000000E+00
  1 8226 0.00000000E+00
  1 8227 0.00000000E+00
  1 8228 0.00000000E+00
  1 8229 0.00000000E+00
  1 8230 0.00000000E+00
  1 8231 0.00000000E+00
  1 8232 0.00000000E+00
  1 8233 0.00000000E+00
  1 8234 0.00000000E+00
  1 8244 0.00000000E+00
  1 8245 0.00000000E+00
  1 8250 0.00000000E+00
  1 8251 0.00000000E+00
  1 8256 0.00000000E+00
  1 8275 0.00000000E+00
  1 8276 0.00000000E+00
  1 8277 0.00000000E+00
  1 8278 0.00000000E+00
  1 8279 0.00000000E+00
  1 8280 0.00000000E+00
  1 8281 0.00000000E+00
  1 8282 0.00000000E+00
  1 8283 0.00000000E+00
  1 8284 0.00000000E+00
  1 8285 0.00000000E+00
  1 8286 0.00000000E+00
  1 8287 0.00000000E+00
  1 8288 0.00000000E+00
  1 8289 0.00000000E+00
  1 8296 0.00000000E+00
  1 8297 0.00000000E+00
  1 8298 0.00000000E+00
  1 8299 0.00000000E+00
  1 8300 0.00000000E+00
  1 8301 0.00000000E+00
  1 8302 0.00000000E+00
  1 8303 0.00000000E+00
  1 8304 0.00000000E+00
  1 8305 0.00000000E+00
  1 8306 0.00000000E+00
  1 8307 0.00000000E+00
  1 8308 0.00000000E+00
  1 8309 0.00000000E+00
  1 8310 0.00000000E+00
  1 8311 0.00000000E+00
  1 8312 0.00000000E+00
  1 8313 0.00000000E+00
  1 8314 0.00000000E+00
  1 8315 0.00000000E+00
  1 8316 0.00000000E+00
  1 8317 0.00000000E+00
  1 8318 0.00000000E+00
  1 8319 0.00000000E+00
  1 8320 0.00000000E+00
  1 8321 0.00000000E+00
  1 8322 0.00000000E+00
  1 8323 0.00000000E+00
  1 8324 0.00000000E+00
  1 8325 0.00000000E+00
  1 8326 0.00000000E+00
  1 8327 0.00000000E+00
  1 8328 0.00000000E+00
  1 8329 0.00000000E+00
  1 8330 0.00000000E+00
  1 8331 0.00000000E+00
  1 8332 0.00000000E+00
  1 8333 0.00000000E+00
  1 8334 0.00000000E+00
  1 8336 0.00000000E+00
  1 8337 0.00000000E+00
  1 8347 0.00000000E+00
  1 8349 0.00000000E+00
  1 8383 0.00000000E+00
  1 8394 0.00000000E+00
  1 8395 0.00000000E+00
  1 8396 0.00000000E+00
  1 8397 0.00000000E+00
  1 8398 0.00000000E+00
  1 8403 0.00000000E+00
  1 8404 0.00000000E+00
  1 8408 0.00000000E+00
  1 8422 0.00000000E+00
  1 8423 0.00000000E+00
  1 8424 0.00000000E+00
  1 8425 0.00000000E+00
  1 8426 0.00000000E+00
  1 8427 0.00000000E+00
  1 8428 0.00000000E+00
  1 8429 0.00000000E+00
  1 8430 0.00000000E+00
  1 8431 0.00000000E+00
  1 8432 0.00000000E+00
  1 8433 0.00000000E+00
  1 8434 0.00000000E+00
  1 8435 0.00000000E+00
  1 8436 0.00000000E+00
  1 8437 0.00000000E+00
  1 8438 0.00000000E+00
  1 8439 0.00000000E+00
  1 8440 0.00000000E+00
  1 8441 0.00000000E+00
  1 8442 0.00000000E+00
  1 8443 0.00000000E+00
  1 8444 0.00000000E+00
  1 8445 0.00000000E+00
  1 8460 0.00000000E+00
  1 8461 0.00000000E+00
  1 8462 0.00000000E+00
  1 8463 0.00000000E+00
  1 8464 0.00000000E+00
  1 8465 0.00000000E+00
  1 8466 0.00000000E+00
  1 8469 0.00000000E+00
  1 8470 0.00000000E+00
  1 8471 0.00000000E+00
  1 8472 0.00000000E+00
  1 8473 0.00000000E+00
  1 8474 0.00000000E+00
  1 8475 0.00000000E+00
  1 8476 0.00000000E+00
  1 8477 0.00000000E+00
  1 8478 0.00000000E+00
  1 8479 0.00000000E+00
  1 8480 0.00000000E+00
  1 8481 0.00000000E+00
  1 8485 0.00000000E+00
  1 8486 0.00000000E+00
  1 8487 0.00000000E+00
  1 8488 0.00000000E+00
  1 8489 0.00000000E+00
  1 8490 0.00000000E+00
  1 8491 0.00000000E+00
  1 8492 0.00000000E+00
  1 8493 0.00000000E+00
  1 8494 0.00000000E+00
  1 8495 0.00000000E+00
  1 8496 0.00000000E+00
  1 8497 0.00000000E+00
  1 8498 0.00000000E+00
  1 8499 0.00000000E+00
  1 8500 0.00000000E+00
  1 8501 0.00000000E+00
  1 8502 0.00000000E+00
  1 8503 0.00000000E+00
  1 8504 0.00000000E+00
  1 8505 0.00000000E+00
  1 8506 0.00000000E+00
  1 8507 0.00000000E+00
  1 8508 0.00000000E+00
  1 8509 0.00000000E+00
  1 8512 0.00000000E+00
  1 8515 0.00000000E+00
  1 8518 0.00000000E+00
  1 8519 0.00000000E+00
  1 8520 0.00000000E+00
  1 8521 0.00000000E+00
  1 8522 0.00000000E+00
  1 8523 0.00000000E+00
  1 8528 0.00000000E+00
  1 8529 0.00000000E+00
  1 8531 0.00000000E+00
  1 8532 0.00000000E+00
  1 8534 0.00000000E+00
  1 8535 0.00000000E+00
  1 8536 0.00000000E+00
  1 8539 0.00000000E+00
  1 8540 0.00000000E+00
  1 8541 0.00000000E+00
  1 8547 0.00000000E+00
  1 8549 0.00000000E+00
  1 8551 0.00000000E+00
  1 8553 0.00000000E+00
  1 8556 0.00000000E+00
  1 8557 0.00000000E+00
  1 8558 0.00000000E+00
  1 8560 0.00000000E+00
  1 8561 0.00000000E+00
  1 8562 0.00000000E+00
  1 8563 0.00000000E+00
  1 8565 0.00000000E+00
  1 8566 0.00000000E+00
  1 8567 0.00000000E+00
  1 8568 0.00000000E+00
  1 8569 0.00000000E+00
  1 8570 0.00000000E+00
  1 8572 0.00000000E+00
  1 8576 0.00000000E+00
  1 8577 0.00000000E+00
  1 8578 0.00000000E+00
  1 8579 0.00000000E+00
  1 8580 0.00000000E+00
  1 8581 0.00000000E+00
  1 8582 0.00000000E+00
  1 8584 0.00000000E+00
  1 8586 0.00000000E+00
  1 8588 0.00000000E+00
  1 8591 0.00000000E+00
  1 8594 0.00000000E+00
  1 8595 0.00000000E+00
  1 8598 0.00000000E+00
  1 8601 0.00000000E+00
  1 8602 0.00000000E+00
  1 8604 0.00000000E+00
  1 8606 0.00000000E+00
  1 8607 0.00000000E+00
  1 8615 0.00000000E+00
  1 8616 0.00000000E+00
  1 8617 0.00000000E+00
  1 8618 0.00000000E+00
  1 8619 0.00000000E+00
  1 8620 0.00000000E+00
  1 8621 0.00000000E+00
  1 8623 0.00000000E+00
  1 8625 0.00000000E+00
  1 8626 0.00000000E+00
  1 8629 0.00000000E+00
  1 8632 0.00000000E+00
  1 8633 0.00000000E+00
  1 8634 0.00000000E+00
  1 8635 0.00000000E+00
  1 8638 0.00000000E+00
  1 8639 0.00000000E+00
  1 8641 0.00000000E+00
  1 8644 0.00000000E+00
  1 8647 0.00000000E+00
  1 8648 0.00000000E+00
  1 8651 0.00000000E+00
  1 8653 0.00000000E+00
  1 8654 0.00000000E+00
  1 8655 0.00000000E+00
  1 8657 0.00000000E+00
  1 8658 0.00000000E+00
  1 8659 0.00000000E+00
  1 8662 0.00000000E+00
  1 8663 0.00000000E+00
  1 8665 0.00000000E+00
  1 8668 0.00000000E+00
  1 8670 0.00000000E+00
  1 8672 0.00000000E+00
  1 8673 0.00000000E+00
  1 8676 0.00000000E+00
  1 8677 0.00000000E+00
  1 8678 0.00000000E+00
  1 8681 0.00000000E+00
  1 8683 0.00000000E+00
  1 8687 0.00000000E+00
  1 8688 0.00000000E+00
  1 8689 0.00000000E+00
  1 8694 0.00000000E+00
  1 8696 0.00000000E+00
  1 8698 0.00000000E+00
  1 8699 0.00000000E+00
  1 8702 0.00000000E+00
  1 8703 0.00000000E+00
  1 8704 0.00000000E+00
  1 8705 0.00000000E+00
  1 8706 0.00000000E+00
  1 8707 0.00000000E+00
  1 8708 0.00000000E+00
  1 8709 0.00000000E+00
  1 8710 0.00000000E+00
  1 8712 0.00000000E+00
  1 8714 0.00000000E+00
  1 8715 0.00000000E+00
  1 8717 0.00000000E+00
  1 8718 0.00000000E+00
  1 8719 0.00000000E+00
  1 8720 0.00000000E+00
  1 8721 0.00000000E+00
  1 8724 0.00000000E+00
  1 8726 0.00000000E+00
  1 8727 0.00000000E+00
  1 8728 0.00000000E+00
  1 8732 0.00000000E+00
  1 8736 0.00000000E+00
  1 8737 0.00000000E+00
  1 8739 0.00000000E+00
  1 8741 0.00000000E+00
  1 8743 0.00000000E+00
  1 8744 0.00000000E+00
  1 8746 0.00000000E+00
  1 8748 0.00000000E+00
  1 8751 0.00000000E+00
  1 8752 0.00000000E+00
  1 8755 0.00000000E+00
  1 8758 0.00000000E+00
  1 8759 0.00000000E+00
  1 8761 0.00000000E+00
  1 8762 0.00000000E+00
  1 8764 0.00000000E+00
  1 8765 0.00000000E+00
  1 8768 0.00000000E+00
  1 8771 0.00000000E+00
  1 8773 0.00000000E+00
  1 8775 0.00000000E+00
  1 8777 0.00000000E+00
  1 8778 0.00000000E+00
  1 8779 0.00000000E+00
  1 8780 0.00000000E+00
  1 8781 0.00000000E+00
  1 8783 0.00000000E+00
  1 8785 0.00000000E+00
  1 8786 0.00000000E+00
  1 8788 0.00000000E+00
  1 8790 0.00000000E+00
  1 8792 0.00000000E+00
  1 8795 0.00000000E+00
  1 8797 0.00000000E+00
  1 8802 0.00000000E+00
  1 8803 0.00000000E+00
  1 8805 0.00000000E+00
  1 8806 0.00000000E+00
  1 8808 0.00000000E+00
  1 8809 0.00000000E+00
  1 8815 0.00000000E+00
  1 8816 0.00000000E+00
  1 8820 0.00000000E+00
  1 8821 0.00000000E+00
  1 8822 0.00000000E+00