# File generated by Flopy version 3.9.1 on 02/09/2026 at 23:51:32.
BEGIN options
  SAVE_FLOWS
END options

BEGIN packages
  DISV6  voronoi_caseC.disv  disv
  IC6  voronoi_caseC.ic  ic
  CHD6  voronoi_caseC.chd  chd
  NPF6  voronoi_caseC.npf  npf
  WEL6  voronoi_caseC.wel  well_package
  RCH6  voronoi_caseC.rch  rch
  EVT6  voronoi_caseC.evt  evt
  OC6  voronoi_caseC.oc  oc
END packages

