# File generated by Flopy version 3.9.1 on 02/09/2026 at 23:51:37.
BEGIN options
  BUDGET  FILEOUT  voronoi_caseC.cbc
  HEAD  FILEOUT  voronoi_caseC.hds
END options

BEGIN period  1
  SAVE  HEAD  LAST
  SAVE  BUDGET  LAST
  PRINT  BUDGET  LAST
END period  1

