# File generated by Flopy version 3.9.1 on 02/10/2026 at 20:25:42.
BEGIN options
END options

BEGIN timing
  TDIS6  voronoi_caseA.tdis
END timing

BEGIN models
  gwf6  voronoi_caseA.nam  voronoi_casea
END models

BEGIN exchanges
END exchanges

BEGIN solutiongroup  1
  ims6  voronoi_caseA.ims  voronoi_casea
END solutiongroup  1

