# File generated by Flopy version 3.9.1 on 02/10/2026 at 20:25:42.
BEGIN options
  SAVE_FLOWS
END options

BEGIN dimensions
  MAXBOUND  4310
END dimensions

BEGIN period  1
  2 187 -0.00000000E+00
  2 188 -0.00000000E+00
  2 189 -0.00000000E+00
  2 190 -0.00000000E+00
  2 191 -0.00000000E+00
  2 192 -0.00000000E+00
  2 1521 -0.00000000E+00
  2 1538 -0.00000000E+00
  2 1599 -0.00000000E+00
  2 1616 -0.00000000E+00
  2 1678 -0.00000000E+00
  2 1686 -1.82320032E-02
  2 1771 -9.11600159E-03
  2 1810 -0.00000000E+00
  2 1850 -1.82320032E-02
  2 1857 -0.00000000E+00
  2 1895 -0.00000000E+00
  2 1896 -0.00000000E+00
  2 1897 -0.00000000E+00
  2 1924 -1.82320032E-02
  2 1925 -0.00000000E+00
  2 1926 -0.00000000E+00
  2 1950 -3.64640064E-02
  2 1951 -0.00000000E+00
  2 1952 -0.00000000E+00
  2 1953 -0.00000000E+00
  2 1954 -0.00000000E+00
  2 1966 -3.64640064E-02
  2 1967 -9.11600159E-03
  2 1968 -0.00000000E+00
  2 1969 -2.73480048E-02
  2 1970 -0.00000000E+00
  2 1971 -0.00000000E+00
  2 1972 -0.00000000E+00
  2 1973 -0.00000000E+00
  2 1974 -0.00000000E+00
  2 1975 -0.00000000E+00
  2 1976 -1.18508021E-01
  2 1977 -0.00000000E+00
  2 1978 -0.00000000E+00
  2 1979 -0.00000000E+00
  2 1980 -9.11600159E-03
  2 1981 -1.82320032E-02
  2 1983 -9.11600159E-03
  2 1991 -0.00000000E+00
  2 1992 -0.00000000E+00
  2 1993 -0.00000000E+00
  2 1999 -1.75938831E+00
  2 2003 -1.82320032E-02
  2 2006 -2.55248044E-01
  2 2007 -5.46960095E-02
  2 2008 -2.73480048E-01
  2 2256 -9.11600159E-03
  2 2257 -0.00000000E+00
  2 2258 -6.38120111E-02
  2 2260 -0.00000000E+00
  2 2491 -3.64640064E-02
  2 2507 -4.55800079E-02
  2 2508 -1.18508021E-01
  2 2516 -8.20440143E-02
  2 2269 -4.44324790E-02
  2 2275 -1.11081198E-01
  2 2278 -1.11081198E-02
  2 2280 -0.00000000E+00
  2 2281 -0.00000000E+00
  2 2282 -1.11081198E-02
  2 2283 -5.55405988E-02
  2 2285 -0.00000000E+00
  2 2286 -2.22162395E-02
  2 2289 -1.11081198E-02
  2 2295 -1.66621796E-02
  2 2390 -2.22162395E-02
  2 2393 -3.33243593E-02
  2 2414 -0.00000000E+00
  2 2653 -1.49959617E-01
  2 2654 -2.77702994E-02
  2 2655 -1.11081198E-02
  2 2656 -2.77702994E-02
  2 3037 -0.00000000E+00
  2 1939 -1.01170856E-03
  2 2108 -1.51756285E-03
  2 2109 -1.01170856E-03
  2 2160 -5.05854282E-04
  2 2185 -0.00000000E+00
  2 2187 -7.08195995E-03
  2 2190 -7.08195995E-03
  2 2192 -1.51756285E-03
  2 2200 -3.03512569E-03
  2 2201 -2.52927141E-03
  2 2209 -2.02341713E-03
  2 2210 -7.08195995E-03
  2 2212 -2.15493924E-01
  2 2581 -1.01170856E-03
  2 2582 -0.00000000E+00
  2 2584 -5.05854282E-04
  2 2751 -1.01170856E-03
  2 2753 -0.00000000E+00
  2 2730 -2.66034786E-03
  2 2733 -0.00000000E+00
  2 2734 -2.66034786E-03
  2 2901 -3.59146961E-02
  2 2902 -0.00000000E+00
  2 2839 -0.00000000E+00
  2 2843 -9.14540944E-03
  2 2844 -4.57270472E-03
  2 2845 -9.90752689E-03
  2 2846 -3.81058727E-03
  2 2869 -2.28635236E-03
  2 2870 -0.00000000E+00
  2 2875 -0.00000000E+00
  2 2876 -5.33482217E-03
  2 2877 -7.62117453E-03
  2 2880 -1.66141605E-01
  2 2881 -2.28635236E-03
  2 2942 -3.04846981E-03
  2 2943 -7.62117453E-04
  2 2944 -1.52423491E-03
  2 2945 -1.52423491E-03
  2 2946 -2.46926055E-01
  2 3009 -6.85905708E-03
  2 3 -1.31053922E-03
  2 4 -1.36878541E-02
  2 5 -0.00000000E+00
  2 6 -0.00000000E+00
  2 7 -0.00000000E+00
  2 8 -0.00000000E+00
  2 9 -0.00000000E+00
  2 10 -0.00000000E+00
  2 624 -0.00000000E+00
  2 625 -0.00000000E+00
  2 626 -0.00000000E+00
  2 627 -0.00000000E+00
  2 628 -0.00000000E+00
  2 629 -0.00000000E+00
  2 630 -0.00000000E+00
  2 631 -0.00000000E+00
  2 632 -0.00000000E+00
  2 633 -0.00000000E+00
  2 634 -0.00000000E+00
  2 635 -0.00000000E+00
  2 636 -0.00000000E+00
  2 637 -0.00000000E+00
  2 638 -0.00000000E+00
  2 639 -0.00000000E+00
  2 640 -0.00000000E+00
  2 641 -1.31053922E-03
  2 642 -1.31053922E-03
  2 693 -0.00000000E+00
  2 694 -1.31053922E-03
  2 743 -1.31053922E-03
  2 744 -0.00000000E+00
  2 745 -1.31053922E-03
  2 789 -1.31053922E-03
  2 791 -1.31053922E-03
  2 809 -1.31053922E-03
  2 837 -1.31053922E-03
  2 839 -1.31053922E-03
  2 847 -1.31053922E-03
  2 855 -1.31053922E-03
  2 856 -1.31053922E-03
  2 858 -1.31053922E-03
  2 887 -1.31053922E-03
  2 888 -1.31053922E-03
  2 889 -1.31053922E-03
  2 898 -1.31053922E-03
  2 902 -1.31053922E-03
  2 903 -1.31053922E-03
  2 907 -1.31053922E-03
  2 908 -1.31053922E-03
  2 910 -1.31053922E-03
  2 911 -1.31053922E-03
  2 913 -1.31053922E-03
  2 942 -1.31053922E-03
  2 944 -1.31053922E-03
  2 945 -1.31053922E-03
  2 946 -1.31053922E-03
  2 954 -1.31053922E-03
  2 955 -1.31053922E-03
  2 957 -1.31053922E-03
  2 958 -1.31053922E-03
  2 959 -1.31053922E-03
  2 960 -1.31053922E-03
  2 962 -1.31053922E-03
  2 963 -1.31053922E-03
  2 964 -1.31053922E-03
  2 966 -1.31053922E-03
  2 967 -1.31053922E-03
  2 976 -1.31053922E-03
  2 979 -1.31053922E-03
  2 982 -1.31053922E-03
  2 984 -1.31053922E-03
  2 985 -1.31053922E-03
  2 986 -1.31053922E-03
  2 987 -1.31053922E-03
  2 988 -1.31053922E-03
  2 989 -1.31053922E-03
  2 990 -1.31053922E-03
  2 992 -1.31053922E-03
  2 993 -1.31053922E-03
  2 994 -1.31053922E-03
  2 995 -1.31053922E-03
  2 996 -1.31053922E-03
  2 997 -1.31053922E-03
  2 998 -1.31053922E-03
  2 1000 -1.31053922E-03
  2 1003 -1.31053922E-03
  2 1004 -1.31053922E-03
  2 1005 -1.31053922E-03
  2 1006 -1.31053922E-03
  2 1007 -1.31053922E-03
  2 1008 -1.31053922E-03
  2 1009 -1.31053922E-03
  2 1010 -1.31053922E-03
  2 1011 -1.31053922E-03
  2 1012 -1.31053922E-03
  2 1013 -1.31053922E-03
  2 1014 -1.31053922E-03
  2 1015 -1.31053922E-03
  2 1016 -1.31053922E-03
  2 1017 -1.31053922E-03
  2 1018 -1.31053922E-03
  2 1020 -1.31053922E-03
  2 1021 -1.31053922E-03
  2 1022 -1.31053922E-03
  2 1023 -1.31053922E-03
  2 1024 -1.31053922E-03
  2 1025 -1.31053922E-03
  2 1026 -1.31053922E-03
  2 1027 -1.31053922E-03
  2 1029 -1.31053922E-03
  2 1030 -1.31053922E-03
  2 1031 -1.31053922E-03
  2 1032 -1.31053922E-03
  2 1033 -1.31053922E-03
  2 1034 -1.31053922E-03
  2 1035 -1.31053922E-03
  2 1036 -1.31053922E-03
  2 1037 -1.31053922E-03
  2 1038 -1.31053922E-03
  2 1039 -1.31053922E-03
  2 1040 -1.31053922E-03
  2 1041 -1.31053922E-03
  2 1042 -1.31053922E-03
  2 1043 -1.31053922E-03
  2 1058 -1.31053922E-03
  2 1112 -1.31053922E-03
  2 1113 -0.00000000E+00
  2 1115 -1.31053922E-03
  2 1116 -1.94153959E-04
  2 1118 -1.31053922E-03
  2 1119 -1.94153959E-04
  2 1120 -1.31053922E-03
  2 1121 -1.94153959E-04
  2 1122 -1.31053922E-03
  2 1123 -1.31053922E-03
  2 1124 -1.31053922E-03
  2 1137 -1.31053922E-03
  2 1147 -1.31053922E-03
  2 1176 -0.00000000E+00
  2 1192 -0.00000000E+00
  2 1199 -1.31053922E-03
  2 1204 -1.31053922E-03
  2 1212 -0.00000000E+00
  2 1214 -0.00000000E+00
  2 1239 -1.94153959E-04
  2 1240 -1.31053922E-03
  2 1262 -0.00000000E+00
  2 1330 -0.00000000E+00
  2 1433 -5.58192631E-03
  2 1434 -0.00000000E+00
  2 1435 -0.00000000E+00
  2 1438 -0.00000000E+00
  2 1496 -0.00000000E+00
  2 1511 -7.28077345E-04
  2 1557 -0.00000000E+00
  2 1577 -0.00000000E+00
  2 1586 -0.00000000E+00
  2 1600 -1.01930828E-03
  2 1602 -7.76615835E-04
  2 1620 -6.79538855E-04
  2 1632 -0.00000000E+00
  2 1633 -0.00000000E+00
  2 1648 -5.33923386E-04
  2 1667 -0.00000000E+00
  2 1693 -5.82461876E-04
  2 1713 -3.88307917E-04
  2 1725 -1.94153959E-04
  2 1733 -2.62107844E-03
  2 1734 -3.88307917E-04
  2 1774 -5.82461876E-04
  2 1775 -5.33923386E-04
  2 1788 -3.88307917E-04
  2 1814 -7.28077345E-04
  2 1815 -4.36846407E-04
  2 1938 -2.91230938E-04
  2 2061 -2.91230938E-04
  2 1719 -1.11984304E-02
  2 2074 -0.00000000E+00
  2 2556 -7.46562029E-03
  2 2557 -5.97249623E-02
  2 2561 -0.00000000E+00
  2 2563 -0.00000000E+00
  2 2567 -0.00000000E+00
  2 2573 -0.00000000E+00
  2 2598 -1.11984304E-02
  2 2599 -1.49312406E-02
  2 2602 -7.46562029E-03
  2 2605 -0.00000000E+00
  2 2758 -0.00000000E+00
  2 2857 -1.49312406E-02
  2 2080 -1.81874166E-04
  2 2088 -9.09370832E-04
  2 2091 -3.63748333E-04
  2 2092 -2.36436416E-03
  2 2094 -2.72811250E-03
  2 2095 -7.63871499E-03
  2 2096 -9.09370832E-04
  2 2097 -1.81874166E-04
  2 2100 -0.00000000E+00
  2 2101 -3.14642308E-02
  2 2102 -5.63809916E-03
  2 2103 -3.63748333E-04
  2 2107 -7.27496666E-04
  2 2109 -3.63748333E-04
  2 2110 -1.81874166E-04
  2 2111 -3.81935750E-03
  2 2112 -5.45622499E-03
  2 2160 -1.81874166E-04
  2 2161 -2.72811250E-03
  2 2201 -9.09370832E-04
  2 2168 -1.14883104E-02
  2 2179 -0.00000000E+00
  2 2186 -8.61623282E-03
  2 2188 -1.72324656E-02
  2 2189 -8.61623282E-03
  2 2191 -0.00000000E+00
  2 2193 -2.87207761E-02
  2 2194 -2.29766209E-02
  2 2513 -0.00000000E+00
  2 2514 -8.61623282E-03
  2 2515 -1.14883104E-02
  2 2518 -8.61623282E-03
  2 2520 -4.02090865E-02
  2 2525 -4.59532417E-02
  2 2526 -6.03136297E-02
  2 2752 -5.74415521E-03
  2 2564 -0.00000000E+00
  2 2567 -0.00000000E+00
  2 2572 -0.00000000E+00
  2 2574 -3.21079927E-03
  2 2592 -0.00000000E+00
  2 2594 -0.00000000E+00
  2 2595 -1.92647956E-02
  2 2596 -3.21079927E-03
  2 2597 -0.00000000E+00
  2 2598 -9.63239781E-03
  2 2600 -1.28431971E-02
  2 2601 -1.22010372E-01
  2 2604 -9.63239781E-03
  2 2614 -1.60539964E-02
  2 2620 -1.60539964E-02
  2 2621 -6.42159854E-03
  2 2757 -0.00000000E+00
  2 2758 -0.00000000E+00
  2 2759 -0.00000000E+00
  2 2760 -3.21079927E-02
  2 2762 -6.42159854E-03
  2 2857 -1.28431971E-02
  2 2894 -0.00000000E+00
  2 2895 -0.00000000E+00
  2 42 -0.00000000E+00
  2 43 -6.20412958E-04
  2 44 -1.24082592E-03
  2 45 -6.20412958E-04
  2 46 -6.20412958E-04
  2 1377 -6.20412958E-04
  2 1393 -6.20412958E-04
  2 1396 -0.00000000E+00
  2 1398 -0.00000000E+00
  2 1442 -0.00000000E+00
  2 1531 -3.72247775E-03
  2 1568 -1.98532147E-02
  2 1589 -2.48165183E-03
  2 1598 -6.20412958E-04
  2 1661 -1.24082592E-03
  2 1690 -1.24082592E-03
  2 1697 -1.24082592E-03
  2 1761 -1.24082592E-03
  2 1772 -1.24082592E-03
  2 1773 -1.86123887E-03
  2 1802 -0.00000000E+00
  2 1812 -5.58371662E-03
  2 1851 -0.00000000E+00
  2 1852 -6.20412958E-04
  2 1858 -4.96330366E-03
  2 1898 -6.20412958E-04
  2 1899 -3.72247775E-02
  2 1900 -1.24082592E-03
  2 1927 -6.20412958E-04
  2 2017 -4.34289071E-03
  2 2267 -6.20412958E-04
  2 2447 -0.00000000E+00
  2 2453 -2.29552794E-02
  2 2464 -6.20412958E-04
  2 2471 -1.86123887E-03
  2 2685 -0.00000000E+00
  2 2686 -5.58371662E-03
  2 2687 -6.20412958E-04
  2 2688 -6.20412958E-04
  2 2689 -0.00000000E+00
  2 2690 -1.24082592E-03
  2 1694 -3.34232954E-02
  2 1818 -2.22821969E-02
  2 1859 -0.00000000E+00
  2 1862 -0.00000000E+00
  2 1863 -5.57054923E-02
  2 1879 -8.91287876E-02
  2 1880 -5.57054923E-02
  2 1906 -2.22821969E-02
  2 1907 -0.00000000E+00
  2 1931 -0.00000000E+00
  2 1932 -0.00000000E+00
  2 1933 -0.00000000E+00
  2 2063 -0.00000000E+00
  2 2064 -0.00000000E+00
  2 2065 -0.00000000E+00
  2 2066 -1.11410985E-02
  2 2067 -0.00000000E+00
  2 2068 -0.00000000E+00
  2 2069 -0.00000000E+00
  2 2070 -0.00000000E+00
  2 2071 -0.00000000E+00
  2 2299 -0.00000000E+00
  2 2300 -7.01889202E-01
  2 2301 -0.00000000E+00
  2 2310 -3.34232954E-02
  2 2651 -2.22821969E-02
  2 2652 -0.00000000E+00
  2 2658 -3.34232954E-02
  2 2659 -3.34232954E-02
  2 2660 -3.34232954E-02
  2 2661 -4.45643938E-02
  2 2662 -5.57054923E-02
  2 2793 -0.00000000E+00
  2 2794 -1.11410985E-02
  2 2795 -4.45643938E-02
  2 2796 -6.68465907E-02
  2 2797 -0.00000000E+00
  2 2798 -0.00000000E+00
  2 2800 -1.11410985E-01
  2 2801 -4.45643938E-02
  2 2804 -7.46453596E-01
  2 2805 -3.34232954E-02
  2 385 -1.71168329E-03
  2 386 -0.00000000E+00
  2 1618 -0.00000000E+00
  2 1701 -3.42336659E-03
  2 1708 -3.42336659E-03
  2 1723 -0.00000000E+00
  2 1731 -0.00000000E+00
  2 2060 -1.71168329E-03
  2 2215 -0.00000000E+00
  2 2545 -0.00000000E+00
  2 2546 -1.14112220E-03
  2 2551 -1.84291235E-01
  2 2552 -0.00000000E+00
  2 2553 -0.00000000E+00
  2 2710 -6.27617208E-03
  2 2711 -3.85699302E-01
  2 2712 -5.13504988E-03
  2 2714 -0.00000000E+00
  2 2715 -1.14112220E-03
  2 2716 -0.00000000E+00
  2 2717 -0.00000000E+00
  2 2719 -0.00000000E+00
  2 2720 -7.47435038E-02
  2 2722 -1.19817831E-01
  2 2723 -1.14112220E-03
  2 2724 -5.70561098E-04
  2 2728 -0.00000000E+00
  2 2741 -1.14112220E-03
  2 2742 -7.98785537E-03
  2 205 -0.00000000E+00
  2 206 -0.00000000E+00
  2 1542 -1.95992660E-03
  2 1604 -4.50783118E-02
  2 1642 -7.83970640E-03
  2 1671 -1.95992660E-02
  2 1680 -0.00000000E+00
  2 1719 -5.87977980E-03
  2 1724 -1.95992660E-03
  2 1730 -2.35191192E-02
  2 1748 -0.00000000E+00
  2 1765 -1.37194862E-02
  2 2073 -0.00000000E+00
  2 2075 -1.37194862E-02
  2 2236 -0.00000000E+00
  2 2237 -0.00000000E+00
  2 2238 -1.56794128E-02
  2 2239 -7.83970640E-03
  2 2240 -0.00000000E+00
  2 2241 -0.00000000E+00
  2 2243 -0.00000000E+00
  2 2555 -0.00000000E+00
  2 2556 -3.91985320E-03
  2 2557 -3.13588256E-02
  2 2558 -2.56750385E-01
  2 2559 -0.00000000E+00
  2 2560 -0.00000000E+00
  2 2561 -0.00000000E+00
  2 2562 -7.83970640E-03
  2 2563 -0.00000000E+00
  2 2564 -0.00000000E+00
  2 2565 -3.13588256E-02
  2 2566 -9.79963301E-03
  2 2567 -0.00000000E+00
  2 2570 -1.95992660E-02
  2 2572 -0.00000000E+00
  2 2573 -0.00000000E+00
  2 2574 -1.95992660E-03
  2 2575 -2.54790458E-02
  2 2576 -0.00000000E+00
  2 2577 -8.23169173E-02
  2 2578 -1.76393394E-02
  2 2592 -0.00000000E+00
  2 2622 -8.81966971E-02
  2 2623 -1.17595596E-01
  2 2625 -3.91985320E-03
  2 2626 -0.00000000E+00
  2 2627 -0.00000000E+00
  2 2634 -0.00000000E+00
  2 2635 -2.15591926E-02
  2 2636 -1.17595596E-02
  2 2637 -0.00000000E+00
  2 2747 -3.91985320E-03
  2 2748 -3.91985320E-03
  2 2749 -1.95992660E-03
  2 2750 -0.00000000E+00
  2 2847 -0.00000000E+00
  2 2848 -0.00000000E+00
  2 2849 -1.95992660E-03
  2 2850 -3.33187522E-02
  2 2853 -0.00000000E+00
  2 2948 -1.37194862E-02
  2 205 -0.00000000E+00
  2 206 -0.00000000E+00
  2 207 -0.00000000E+00
  2 208 -0.00000000E+00
  2 209 -1.44414964E-04
  2 210 -1.44414964E-04
  2 211 -4.33244893E-04
  2 212 -4.33244893E-04
  2 213 -4.33244893E-04
  2 214 -4.33244893E-04
  2 215 -4.33244893E-04
  2 216 -4.33244893E-04
  2 217 -5.77659857E-04
  2 218 -0.00000000E+00
  2 219 -0.00000000E+00
  2 220 -0.00000000E+00
  2 221 -7.78396657E-02
  2 222 -7.78396657E-02
  2 223 -1.14087822E-02
  2 224 -1.29973468E-03
  2 225 -1.73297957E-03
  2 226 -1.44414964E-03
  2 227 -0.00000000E+00
  2 228 -0.00000000E+00
  2 229 -1.44414964E-03
  2 230 -1.58856461E-03
  2 231 -1.29973468E-03
  2 232 -1.01090475E-03
  2 233 -1.01090475E-03
  2 234 -1.01090475E-03
  2 235 -1.44414964E-03
  2 236 -8.66489786E-04
  2 237 -7.22074821E-04
  2 238 -1.01090475E-03
  2 239 -1.01090475E-03
  2 240 -1.01090475E-03
  2 241 -0.00000000E+00
  2 242 -0.00000000E+00
  2 243 -0.00000000E+00
  2 244 -0.00000000E+00
  2 658 -0.00000000E+00
  2 713 -0.00000000E+00
  2 1253 -0.00000000E+00
  2 1254 -1.01090475E-03
  2 1267 -4.04361900E-03
  2 1270 -7.78396657E-02
  2 1272 -7.78396657E-02
  2 1273 -1.73297957E-03
  2 1334 -1.34450332E-01
  2 1342 -1.44414964E-04
  2 1351 -1.29973468E-03
  2 1399 -1.44414964E-03
  2 1400 -1.29973468E-03
  2 1457 -8.66489786E-04
  2 1458 -4.33244893E-04
  2 1466 -8.66489786E-04
  2 1476 -1.15531971E-03
  2 1478 -1.01090475E-03
  2 1501 -1.01090475E-03
  2 1508 -1.73297957E-03
  2 1518 -1.15531971E-03
  2 1519 -1.01090475E-03
  2 1542 -1.44414964E-04
  2 1543 -0.00000000E+00
  2 1570 -2.88829929E-04
  2 1581 -8.66489786E-04
  2 1604 -3.32154418E-03
  2 1619 -2.45505439E-03
  2 1623 -1.44414964E-03
  2 1624 -7.94282303E-03
  2 1628 -0.00000000E+00
  2 1642 -5.77659857E-04
  2 1645 -8.66489786E-04
  2 1671 -1.44414964E-03
  2 1680 -0.00000000E+00
  2 1738 -0.00000000E+00
  2 1748 -0.00000000E+00
  2 1764 -1.01090475E-03
  2 1765 -1.01090475E-03
  2 1794 -0.00000000E+00
  2 1801 -7.22074821E-04
  2 2236 -0.00000000E+00
  2 2237 -0.00000000E+00
  2 2239 -5.77659857E-04
  2 2240 -0.00000000E+00
  2 2241 -0.00000000E+00
  2 2565 -2.31063943E-03
  2 2566 -7.22074821E-04
  2 2570 -1.44414964E-03
  2 2571 -7.94282303E-03
  2 2577 -6.06542850E-03
  2 2069 -0.00000000E+00
  2 2324 -0.00000000E+00
  2 2326 -6.42289200E-03
  2 2351 -0.00000000E+00
  2 2353 -0.00000000E+00
  2 2354 -0.00000000E+00
  2 2355 -0.00000000E+00
  2 2360 -0.00000000E+00
  2 2361 -0.00000000E+00
  2 2365 -0.00000000E+00
  2 2366 -0.00000000E+00
  2 2367 -0.00000000E+00
  2 2368 -0.00000000E+00
  2 2369 -0.00000000E+00
  2 2370 -0.00000000E+00
  2 2371 -0.00000000E+00
  2 2372 -0.00000000E+00
  2 2373 -6.42289200E-03
  2 2390 -8.56385600E-03
  2 2653 -5.78060280E-02
  2 2796 -1.28457840E-02
  2 2797 -0.00000000E+00
  2 2798 -0.00000000E+00
  2 2799 -1.07048200E-02
  2 2800 -2.14096400E-02
  2 2801 -8.56385600E-03
  2 2802 -4.28192800E-03
  2 2803 -8.56385600E-03
  2 2804 -1.43444588E-01
  2 2805 -6.42289200E-03
  2 3032 -0.00000000E+00
  2 3033 -0.00000000E+00
  2 3034 -0.00000000E+00
  2 3035 -5.73778352E-01
  2 3036 -2.14096400E-03
  2 3037 -0.00000000E+00
  2 2785 -1.11577884E-01
  2 2790 -3.78616697E-03
  2 2792 -2.04726715E-01
  2 2863 -1.82465878E-04
  2 2865 -7.07055277E-04
  2 2866 -4.76007859E-02
  2 2868 -9.12329390E-05
  2 2870 -0.00000000E+00
  2 2877 -2.28082347E-04
  2 2890 -9.12329390E-05
  2 401 -0.00000000E+00
  2 402 -0.00000000E+00
  2 403 -0.00000000E+00
  2 404 -0.00000000E+00
  2 405 -0.00000000E+00
  2 406 -0.00000000E+00
  2 407 -0.00000000E+00
  2 408 -0.00000000E+00
  2 409 -0.00000000E+00
  2 410 -0.00000000E+00
  2 411 -7.93829914E-04
  2 412 -0.00000000E+00
  2 413 -0.00000000E+00
  2 414 -0.00000000E+00
  2 415 -0.00000000E+00
  2 416 -0.00000000E+00
  2 417 -0.00000000E+00
  2 674 -0.00000000E+00
  2 675 -0.00000000E+00
  2 676 -0.00000000E+00
  2 697 -0.00000000E+00
  2 729 -0.00000000E+00
  2 730 -0.00000000E+00
  2 731 -0.00000000E+00
  2 748 -0.00000000E+00
  2 774 -0.00000000E+00
  2 775 -0.00000000E+00
  2 776 -0.00000000E+00
  2 822 -0.00000000E+00
  2 871 -0.00000000E+00
  2 1105 -0.00000000E+00
  2 1106 -0.00000000E+00
  2 1107 -0.00000000E+00
  2 1108 -0.00000000E+00
  2 1109 -0.00000000E+00
  2 1110 -0.00000000E+00
  2 1136 -0.00000000E+00
  2 1139 -0.00000000E+00
  2 1140 -0.00000000E+00
  2 1163 -0.00000000E+00
  2 1201 -0.00000000E+00
  2 1227 -0.00000000E+00
  2 1245 -0.00000000E+00
  2 1266 -0.00000000E+00
  2 1285 -0.00000000E+00
  2 1286 -0.00000000E+00
  2 1302 -0.00000000E+00
  2 1309 -0.00000000E+00
  2 1353 -1.92900669E-01
  2 1367 -0.00000000E+00
  2 1407 -0.00000000E+00
  2 1408 -0.00000000E+00
  2 1423 -0.00000000E+00
  2 1473 -0.00000000E+00
  2 1487 -0.00000000E+00
  2 1571 -8.73212906E-03
  2 1576 -0.00000000E+00
  2 1622 -0.00000000E+00
  2 1665 -1.03197889E-02
  2 1684 -0.00000000E+00
  2 2058 -0.00000000E+00
  2 2059 -2.38148974E-03
  2 2544 -1.58765983E-03
  2 2546 -1.58765983E-03
  2 2547 -2.38148974E-03
  2 2735 -0.00000000E+00
  2 385 -2.02433722E-03
  2 386 -0.00000000E+00
  2 387 -0.00000000E+00
  2 1429 -0.00000000E+00
  2 1573 -0.00000000E+00
  2 1590 -0.00000000E+00
  2 1618 -0.00000000E+00
  2 1640 -0.00000000E+00
  2 1669 -1.34955815E-03
  2 1723 -0.00000000E+00
  2 1731 -0.00000000E+00
  2 2543 -1.59922640E-01
  2 2548 -2.69911629E-03
  2 2552 -0.00000000E+00
  2 2553 -0.00000000E+00
  2 2710 -7.42256980E-03
  2 2712 -6.07301165E-03
  2 2720 -8.83960585E-02
  2 388 -9.41193227E-04
  2 389 -9.41193227E-04
  2 390 -9.41193227E-04
  2 391 -2.21180408E-03
  2 392 -4.00007121E-03
  2 393 -3.68634014E-03
  2 394 -3.68634014E-03
  2 395 -3.68634014E-03
  2 396 -3.68634014E-03
  2 728 -3.68634014E-03
  2 1171 -3.68634014E-03
  2 1236 -3.68634014E-03
  2 1237 -3.45104183E-03
  2 1248 -3.45104183E-03
  2 1251 -3.45104183E-03
  2 1252 -3.68634014E-03
  2 1295 -3.68634014E-03
  2 1306 -3.68634014E-03
  2 1345 -2.35298307E-03
  2 1355 -1.27061086E-03
  2 1358 -3.45104183E-03
  2 1368 -0.00000000E+00
  2 1369 -3.68634014E-03
  2 1372 -1.52159572E-03
  2 1373 -1.52159572E-03
  2 1391 -1.52159572E-03
  2 1429 -0.00000000E+00
  2 1490 -4.00007121E-03
  2 1493 -1.09805876E-04
  2 1590 -0.00000000E+00
  2 1637 -6.27462151E-05
  2 1640 -0.00000000E+00
  2 1669 -3.13731076E-05
  2 2542 -0.00000000E+00
  2 2548 -6.27462151E-05
  2 2284 -0.00000000E+00
  2 2287 -1.57076799E-03
  2 2650 -2.17944058E-02
  2 2723 -3.92691997E-04
  2 2737 -9.81729992E-04
  2 2738 -3.92691997E-04
  2 2739 -9.81729992E-04
  2 2743 -0.00000000E+00
  2 2745 -1.37442199E-03
  2 2746 -9.62095392E-03
  2 2835 -1.33515279E-01
  2 2940 -7.85383993E-04
  2 1955 -1.24846356E-03
  2 1985 -1.24846356E-03
  2 2011 -2.08077259E-03
  2 2012 -4.16154519E-04
  2 2025 -1.24846356E-03
  2 2026 -2.08077259E-03
  2 2028 -4.16154519E-04
  2 2032 -8.32309037E-04
  2 2035 -8.32309037E-04
  2 2036 -1.66461807E-03
  2 2395 -1.41492536E-02
  2 2485 -0.00000000E+00
  2 2676 -8.32309037E-04
  2 2677 -3.74539067E-03
  2 2497 -7.92475795E-03
  2 2503 -0.00000000E+00
  2 2704 -2.37742738E-02
  2 2705 -3.56614108E-02
  2 2706 -0.00000000E+00
  2 2707 -0.00000000E+00
  2 2832 -2.37742738E-02
  2 2833 -3.96237897E-03
  2 2834 -1.58495159E-02
  2 2929 -7.92475795E-03
  2 2930 -1.18871369E-02
  2 2931 -3.16990318E-02
  2 2932 -0.00000000E+00
  2 468 -0.00000000E+00
  2 1488 -0.00000000E+00
  2 1548 -0.00000000E+00
  2 1549 -6.73254680E-02
  2 1550 -5.89097845E-02
  2 1580 -0.00000000E+00
  2 1621 -0.00000000E+00
  2 1625 -0.00000000E+00
  2 1629 -5.89097845E-02
  2 1636 -7.57411515E-02
  2 1641 -3.36627340E-02
  2 1668 -0.00000000E+00
  2 1685 -0.00000000E+00
  2 1688 -0.00000000E+00
  2 1694 -2.52470505E-02
  2 1699 -0.00000000E+00
  2 1711 -0.00000000E+00
  2 1712 -5.04941010E-02
  2 1714 -0.00000000E+00
  2 1716 -0.00000000E+00
  2 1726 -5.89097845E-02
  2 1727 -0.00000000E+00
  2 1777 -0.00000000E+00
  2 1779 -0.00000000E+00
  2 1818 -1.68313670E-02
  2 1859 -0.00000000E+00
  2 1860 -0.00000000E+00
  2 1861 -3.36627340E-02
  2 1862 -0.00000000E+00
  2 1877 -5.04941010E-02
  2 1879 -6.73254680E-02
  2 1880 -4.20784175E-02
  2 1906 -1.68313670E-02
  2 1907 -0.00000000E+00
  2 1912 -5.04941010E-02
  2 1931 -0.00000000E+00
  2 1932 -0.00000000E+00
  2 1934 -5.04941010E-02
  2 1957 -1.68313670E-02
  2 2062 -1.09403885E-01
  2 2064 -0.00000000E+00
  2 2065 -0.00000000E+00
  2 2066 -8.41568350E-03
  2 2067 -0.00000000E+00
  2 2492 -0.00000000E+00
  2 2498 -0.00000000E+00
  2 2503 -0.00000000E+00
  2 2504 -3.68836394E-01
  2 2505 -7.37672789E-03
  2 2506 -7.37672789E-03
  2 2707 -0.00000000E+00
  2 2763 -5.16370952E-02
  2 2834 -1.47534558E-02
  2 2930 -1.10650918E-02
  2 2931 -2.95069115E-02
  2 2932 -0.00000000E+00
  2 2935 -0.00000000E+00
  2 2936 -2.21301837E-02
  2 2937 -0.00000000E+00
  2 2938 -0.00000000E+00
  2 2983 -2.58185476E-02
  2 2984 -1.32781102E-01
  2 2985 -7.37672789E-03
  2 2986 -7.37672789E-03
  2 245 -8.28444018E-07
  2 246 -1.20290071E-03
  2 247 -1.20290071E-03
  2 248 -1.20290071E-03
  2 249 -1.20290071E-03
  2 250 -1.20290071E-03
  2 251 -1.76375731E-03
  2 252 -1.76375731E-03
  2 253 -1.76375731E-03
  2 254 -1.76375731E-03
  2 255 -1.15982162E-05
  2 256 -6.62755214E-06
  2 257 -0.00000000E+00
  2 258 -0.00000000E+00
  2 259 -1.65688804E-06
  2 260 -8.28444018E-07
  2 261 -2.48533205E-06
  2 262 -1.65688804E-06
  2 263 -0.00000000E+00
  2 264 -1.65688804E-06
  2 265 -0.00000000E+00
  2 266 -0.00000000E+00
  2 267 -0.00000000E+00
  2 268 -0.00000000E+00
  2 269 -0.00000000E+00
  2 270 -8.28444018E-07
  2 659 -1.76375731E-03
  2 710 -1.76375731E-03
  2 714 -1.76375731E-03
  2 761 -1.76375731E-03
  2 1074 -1.20290071E-03
  2 1087 -1.76375731E-03
  2 1091 -1.76375731E-03
  2 1144 -1.76375731E-03
  2 1145 -1.76375731E-03
  2 1151 -1.76375731E-03
  2 1153 -1.76375731E-03
  2 1154 -1.76375731E-03
  2 1156 -1.76375731E-03
  2 1172 -1.76375731E-03
  2 1209 -1.76375731E-03
  2 1226 -1.20290071E-03
  2 1244 -1.20290071E-03
  2 1260 -1.20290071E-03
  2 1333 -1.20290071E-03
  2 1365 -3.56230928E-05
  2 1370 -3.56230928E-05
  2 1479 -8.28444018E-07
  2 1535 -0.00000000E+00
  2 1560 -0.00000000E+00
  2 1562 -0.00000000E+00
  2 1567 -0.00000000E+00
  2 1594 -1.65688804E-06
  2 1615 -0.00000000E+00
  2 1627 -0.00000000E+00
  2 1660 -6.62755214E-06
  2 1663 -0.00000000E+00
  2 1676 -3.31377607E-06
  2 1691 -0.00000000E+00
  2 1704 -0.00000000E+00
  2 2238 -6.62755214E-06
  2 2239 -3.31377607E-06
  2 2241 -0.00000000E+00
  2 2242 -0.00000000E+00
  2 2243 -0.00000000E+00
  2 2244 -0.00000000E+00
  2 2245 -0.00000000E+00
  2 2246 -8.28444018E-07
  2 2247 -8.28444018E-07
  2 2248 -0.00000000E+00
  2 2622 -3.72799808E-05
  2 2623 -4.97066411E-05
  2 2624 -0.00000000E+00
  2 2625 -1.65688804E-06
  2 2627 -0.00000000E+00
  2 2629 -1.01070170E-04
  2 2630 -9.11288419E-06
  2 2631 -0.00000000E+00
  2 2632 -0.00000000E+00
  2 2633 -1.40835483E-05
  2 2637 -0.00000000E+00
  2 3031 -0.00000000E+00
  2 2072 -0.00000000E+00
  2 2718 -0.00000000E+00
  2 2725 -3.76908257E-02
  2 2727 -9.89384174E-02
  2 2734 -4.71135321E-03
  2 2902 -0.00000000E+00
  2 2497 -5.12244478E-03
  2 2519 -7.68366717E-03
  2 2521 -2.56122239E-03
  2 2524 -1.79285567E-02
  2 2533 -5.12244478E-03
  2 2537 -2.56122239E-03
  2 2538 -3.84183359E-02
  2 2832 -1.53673343E-02
  2 2833 -2.56122239E-03
  2 2891 -3.84183359E-02
  2 2928 -5.12244478E-03
  2 2929 -5.12244478E-03
  2 2995 -1.53673343E-02
  2 2108 -5.20250084E-03
  2 2109 -3.46833389E-03
  2 2142 -0.00000000E+00
  2 2147 -1.73416695E-03
  2 2148 -1.73416695E-03
  2 2150 -1.73416695E-03
  2 2151 -1.73416695E-03
  2 2152 -5.20250084E-03
  2 2153 -3.46833389E-03
  2 2158 -3.46833389E-03
  2 2159 -1.73416695E-03
  2 2160 -1.73416695E-03
  2 2161 -2.60125042E-02
  2 2167 -1.73416695E-03
  2 2169 -0.00000000E+00
  2 2170 -5.20250084E-03
  2 2174 -0.00000000E+00
  2 2180 -1.73416695E-03
  2 2181 -0.00000000E+00
  2 2185 -0.00000000E+00
  2 2186 -5.20250084E-03
  2 2188 -1.04050017E-02
  2 2189 -5.20250084E-03
  2 2199 -1.73416695E-03
  2 2523 -3.29491720E-02
  2 2526 -3.64175058E-02
  2 2528 -6.93666778E-03
  2 2534 -2.08100033E-02
  2 2709 -3.46833389E-03
  2 2730 -2.58996816E-03
  2 2843 -1.55398090E-02
  2 2844 -7.76990448E-03
  2 2870 -0.00000000E+00
  2 2878 -6.47492040E-03
  2 2883 -3.88495224E-03
  2 2884 -0.00000000E+00
  2 2889 -1.47628185E-01
  2 2890 -5.17993632E-03
  2 2901 -3.49645702E-02
  2 2332 -6.14660815E-03
  2 2342 -1.84398244E-02
  2 2346 -1.22932163E-02
  2 2357 -1.84398244E-02
  2 2358 -1.84398244E-02
  2 2379 -0.00000000E+00
  2 2388 -0.00000000E+00
  2 2399 -0.00000000E+00
  2 2400 -1.84398244E-02
  2 2401 -1.22932163E-02
  2 2402 -1.22932163E-02
  2 2403 -2.45864326E-02
  2 2404 -0.00000000E+00
  2 2405 -1.22932163E-02
  2 2406 -1.22932163E-02
  2 2407 -6.14660815E-03
  2 2408 -6.14660815E-03
  2 2410 -0.00000000E+00
  2 2419 -1.84398244E-02
  2 2420 -1.22932163E-02
  2 2421 -1.22932163E-02
  2 2423 -2.45864326E-02
  2 2424 -0.00000000E+00
  2 2427 -0.00000000E+00
  2 2436 -4.30262570E-02
  2 2450 -9.83457304E-02
  2 2458 -6.14660815E-03
  2 2459 -1.16785555E-01
  2 2460 -6.14660815E-02
  2 2461 -3.68796489E-02
  2 2468 -2.45864326E-02
  2 2469 -7.37592978E-02
  2 2470 -6.14660815E-03
  2 2473 -6.14660815E-03
  2 2474 -6.14660815E-03
  2 2476 -0.00000000E+00
  2 2479 -0.00000000E+00
  2 2480 -0.00000000E+00
  2 2668 -1.84398244E-02
  2 2702 -6.14660815E-03
  2 2824 -3.68796489E-02
  2 2904 -1.22932163E-02
  2 2905 -3.68796489E-02
  2 2906 -6.14660815E-03
  2 2907 -5.53194733E-02
  2 2909 -1.84398244E-02
  2 2910 -6.14660815E-02
  2 2912 -0.00000000E+00
  2 2269 -7.15475278E-03
  2 2271 -1.18947765E-01
  2 2276 -0.00000000E+00
  2 2277 -0.00000000E+00
  2 2279 -0.00000000E+00
  2 2282 -1.78868820E-03
  2 2283 -8.94344098E-03
  2 2284 -0.00000000E+00
  2 2286 -3.57737639E-03
  2 2287 -7.15475278E-03
  2 2649 -0.00000000E+00
  2 2736 -0.00000000E+00
  2 2738 -1.78868820E-03
  2 46 -4.19336897E-04
  2 47 -3.35469517E-03
  2 48 -4.19336897E-04
  2 49 -8.38673794E-04
  2 50 -4.19336897E-04
  2 51 -4.19336897E-04
  2 52 -0.00000000E+00
  2 53 -4.19336897E-04
  2 54 -0.00000000E+00
  2 55 -8.38673794E-04
  2 1442 -0.00000000E+00
  2 1481 -2.93535828E-03
  2 1482 -4.19336897E-04
  2 1531 -2.51602138E-03
  2 1552 -1.67734759E-03
  2 1630 -1.25801069E-03
  2 1646 -3.35469517E-03
  2 1672 -1.25801069E-03
  2 1689 -1.46348577E-01
  2 1696 -8.38673794E-04
  2 1697 -8.38673794E-04
  2 1767 -8.38673794E-04
  2 1773 -1.25801069E-03
  2 1811 -3.35469517E-03
  2 1812 -3.77403207E-03
  2 1858 -3.35469517E-03
  2 1899 -2.51602138E-02
  2 1900 -8.38673794E-04
  2 1901 -1.25801069E-03
  2 1902 -1.25801069E-03
  2 1903 -8.38673794E-04
  2 1904 -8.38673794E-04
  2 1905 -4.19336897E-04
  2 1928 -1.67734759E-03
  2 1929 -1.25801069E-03
  2 1930 -1.67734759E-03
  2 1956 -2.93535828E-03
  2 2009 -1.25801069E-03
  2 2010 -1.67734759E-03
  2 2016 -1.67734759E-03
  2 2017 -2.93535828E-03
  2 2018 -4.19336897E-04
  2 2687 -4.19336897E-04
  2 2689 -0.00000000E+00
  2 2690 -8.38673794E-04
  2 2713 -5.70899282E-03
  2 2721 -0.00000000E+00
  2 2729 -0.00000000E+00
  2 2730 -2.85449641E-03
  2 2731 -8.56348923E-03
  2 2732 -1.79833274E-01
  2 2733 -0.00000000E+00
  2 2842 -1.71269785E-02
  2 2843 -1.71269785E-02
  2 2844 -8.56348923E-03
  2 2846 -7.13624102E-03
  2 2878 -7.13624102E-03
  2 2883 -4.28174461E-03
  2 2884 -0.00000000E+00
  2 2889 -1.62706295E-01
  2 2901 -3.85357015E-02
  2 2941 -0.00000000E+00
  2 2858 -8.15736563E-04
  2 2860 -2.69193066E-02
  2 2862 -0.00000000E+00
  2 2863 -6.52589251E-03
  2 2864 -5.13914035E-02
  2 2865 -2.52878335E-02
  2 2867 -1.63147313E-02
  2 2868 -3.26294625E-03
  2 2871 -4.07868282E-03
  2 2874 -8.15736563E-04
  2 2879 -2.44720969E-03
  2 2885 -1.38675216E-02
  2 2886 -0.00000000E+00
  2 2932 -0.00000000E+00
  2 2934 -0.00000000E+00
  2 1709 -2.09578732E-03
  2 1724 -1.04789366E-03
  2 2074 -0.00000000E+00
  2 2555 -0.00000000E+00
  2 2557 -1.67662986E-02
  2 2558 -1.37274070E-01
  2 2602 -2.09578732E-03
  2 2605 -0.00000000E+00
  2 2606 -1.25747239E-02
  2 2747 -2.09578732E-03
  2 2754 -1.04789366E-03
  2 2758 -0.00000000E+00
  2 2763 -1.46705113E-02
  2 2853 -0.00000000E+00
  2 2854 -3.14368098E-03
  2 2855 -2.09578732E-03
  2 2856 -3.35325972E-02
  2 2857 -4.19157465E-03
  2 2895 -0.00000000E+00
  2 2988 -0.00000000E+00
  2 37 -0.00000000E+00
  2 38 -0.00000000E+00