# File generated by Flopy version 3.9.1 on 04/13/2026 at 08:32:28.
BEGIN options
  SAVE_FLOWS
END options

BEGIN dimensions
  MAXBOUND  89696
END dimensions

BEGIN period  1
  162601 -3.88608109E-04
  162602 -3.88608109E-04
  162603 -4.74101892E-03
  162604 -2.79797838E-03
  162605 -3.88608109E-04
  162606 -1.01038108E-03
  162607 -6.99494595E-04
  163086 -0.00000000E+00
  163107 -1.16582433E-03
  163108 -7.77216217E-04
  163110 -7.77216217E-04
  163111 -7.77216217E-04
  163112 -1.47671081E-03
  163113 -7.77216217E-04
  163114 -1.47671081E-03
  163587 -0.00000000E+00
  163589 -0.00000000E+00
  163590 -0.00000000E+00
  163592 -6.21772974E-04
  163593 -0.00000000E+00
  163611 -9.32659461E-04
  163612 -4.89646217E-03
  163613 -2.25392703E-03
  163614 -9.32659461E-04
  163615 -2.64253514E-03
  163616 -2.25392703E-03
  163617 -7.07266758E-03
  163620 -4.51562622E-02
  163628 -4.66329730E-04
  163629 -6.99494595E-04
  163632 -6.21772974E-04
  164085 -0.00000000E+00
  164087 -0.00000000E+00
  164088 -6.21772974E-04
  164089 -0.00000000E+00
  164090 -0.00000000E+00
  164091 -0.00000000E+00
  164092 -0.00000000E+00
  164094 -0.00000000E+00
  164095 -0.00000000E+00
  164105 -1.26686243E-02
  164108 -4.89646217E-03
  164109 -2.25392703E-03
  164110 -3.04668757E-02
  164111 -5.41719703E-02
  164112 -2.25392703E-03
  164113 -7.07266758E-03
  164114 -5.41719703E-02
  164115 -1.85521511E-01
  164116 -4.51562622E-02
  164118 -1.53111595E-02
  164119 -5.20734865E-03
  164121 -4.66329730E-04
  164122 -1.55443243E-03
  164123 -6.99494595E-04
  164124 -4.66329730E-04
  164125 -6.99494595E-04
  164126 -6.99494595E-04
  164127 -1.55443243E-04
  164128 -6.21772974E-04
  164580 -0.00000000E+00
  164581 -0.00000000E+00
  164584 -0.00000000E+00
  164585 -0.00000000E+00
  164586 -0.00000000E+00
  164587 -0.00000000E+00
  164595 -0.00000000E+00
  164596 -2.33164865E-04
  164597 -6.21772974E-04
  164598 -6.21772974E-04
  164599 -2.17620541E-03
  164600 -3.04668757E-02
  164601 -5.41719703E-02
  164602 -4.11924595E-03
  164603 -6.68405947E-02
  164604 -5.41719703E-02
  164605 -1.85521511E-01
  164606 -6.68405947E-02
  164607 -1.98656465E-01
  164608 -1.53111595E-02
  164609 -5.20734865E-03
  164610 -5.40165271E-02
  164611 -1.73319216E-02
  164612 -1.55443243E-03
  164613 -6.99494595E-04
  164614 -1.55443243E-03
  164615 -6.99494595E-04
  164616 -6.99494595E-04
  164617 -1.55443243E-04
  164618 -6.99494595E-04
  164619 -1.55443243E-04
  164622 -1.01038108E-03
  165075 -0.00000000E+00
  165078 -2.33164865E-04
  165079 -2.33164865E-04
  165080 -2.33164865E-04
  165081 -2.33164865E-04
  165082 -3.88608109E-04
  165083 -0.00000000E+00
  165084 -3.88608109E-04
  165085 -0.00000000E+00
  165086 -0.00000000E+00
  165087 -5.44051352E-04
  165088 -0.00000000E+00
  165089 -5.44051352E-04
  165090 -3.73063784E-03
  165091 -6.52861622E-03
  165092 -3.73063784E-03
  165093 -6.52861622E-03
  165094 -6.52861622E-03
  165095 -8.39393515E-02
  165096 -6.52861622E-03
  165097 -8.39393515E-02
  165098 -5.40165271E-02
  165099 -1.73319216E-02
  165100 -5.40165271E-02
  165101 -1.73319216E-02
  165102 -1.24354595E-03
  165103 -2.02076216E-03
  165104 -1.24354595E-03
  165105 -2.02076216E-03
  165106 -2.02076216E-03
  165107 -7.77216217E-04
  165108 -2.02076216E-03
  165109 -7.77216217E-04
  165110 -0.00000000E+00
  165570 -1.55443243E-04
  165572 -0.00000000E+00
  165573 -0.00000000E+00
  165574 -0.00000000E+00
  165575 -0.00000000E+00
  165576 -0.00000000E+00
  165577 -0.00000000E+00
  165578 -1.47671081E-03
  165579 -0.00000000E+00
  165580 -1.47671081E-03
  165581 -3.73063784E-03
  165582 -1.03525200E-01
  165583 -8.08304866E-03
  165584 -1.50002730E-02
  165585 -1.03525200E-01
  165586 -8.39393515E-02
  165587 -1.50002730E-02
  165588 -3.80835946E-03
  165589 -6.21772974E-02
  165590 -7.61671893E-03
  165591 -4.35241082E-03
  165592 -1.86531892E-03
  165593 -1.94304054E-03
  165594 -1.47671081E-03
  165595 -5.20734865E-03
  165596 -4.89646217E-03
  166026 -1.55443243E-04
  166060 -0.00000000E+00
  166062 -0.00000000E+00
  166063 -0.00000000E+00
  166064 -0.00000000E+00
  166065 -0.00000000E+00
  166066 -0.00000000E+00
  166067 -0.00000000E+00
  166068 -1.47671081E-03
  166069 -2.33164865E-04
  166070 -2.33164865E-04
  166071 -8.08304866E-03
  166072 -1.50002730E-02
  166073 -9.63748109E-03
  166074 -1.94304054E-03
  166075 -1.50002730E-02
  166076 -3.80835946E-03
  166077 -1.94304054E-03
  166078 -1.70987568E-03
  166079 -4.35241082E-03
  166080 -1.86531892E-03
  166081 -1.32126757E-03
  166082 -6.21772974E-04
  166083 -5.20734865E-03
  166084 -4.89646217E-03
  166085 -1.55443243E-04
  166086 -4.66329730E-04
  166087 -4.89646217E-03
  166089 -4.66329730E-04
  166514 -1.55443243E-04
  166515 -2.33164865E-04
  166516 -1.55443243E-04
  166517 -2.33164865E-04
  166518 -1.55443243E-04
  166520 -1.55443243E-04
  166521 -3.10886487E-04
  166524 -3.10886487E-04
  166525 -0.00000000E+00
  166528 -0.00000000E+00
  166529 -2.33164865E-04
  166547 -0.00000000E+00
  166549 -0.00000000E+00
  166550 -0.00000000E+00
  166551 -0.00000000E+00
  166552 -0.00000000E+00
  166553 -0.00000000E+00
  166554 -2.33164865E-03
  166555 -1.05701406E-02
  166556 -2.33164865E-03
  166557 -1.05701406E-02
  166558 -6.29545136E-03
  166559 -1.63215406E-03
  166560 -6.29545136E-03
  166561 -1.63215406E-03
  166562 -1.63215406E-03
  166563 -0.00000000E+00
  166564 -1.63215406E-03
  166565 -0.00000000E+00
  166566 -0.00000000E+00
  166567 -4.66329730E-04
  166568 -0.00000000E+00
  166569 -4.66329730E-04
  166570 -4.66329730E-04
  166571 -2.33164865E-04
  166572 -4.66329730E-04
  166573 -2.33164865E-04
  166574 -2.33164865E-04
  166576 -2.33164865E-04
  166964 -0.00000000E+00
  166965 -0.00000000E+00
  166966 -7.77216217E-05
  166967 -2.33164865E-04
  166968 -2.33164865E-04
  166969 -0.00000000E+00
  166970 -3.88608109E-04
  166971 -0.00000000E+00
  166972 -0.00000000E+00
  166973 -0.00000000E+00
  166974 -0.00000000E+00
  166975 -7.77216217E-05
  166976 -2.33164865E-04
  166977 -3.10886487E-04
  166978 -3.88608109E-04
  166979 -6.99494595E-04
  166989 -7.77216217E-05
  166991 -3.88608109E-04
  166992 -1.55443243E-04
  166994 -3.88608109E-04
  166995 -3.10886487E-04
  166996 -0.00000000E+00
  166997 -0.00000000E+00
  166998 -2.72025676E-03
  166999 -2.72025676E-03
  167000 -5.44051352E-04
  167001 -2.33164865E-04
  167002 -8.54937839E-04
  167003 -1.55443243E-03
  167004 -1.78759730E-03
  167005 -3.10886487E-04
  167006 -2.17620541E-03
  167007 -1.39898919E-03
  167008 -1.55443243E-03
  167009 -3.88608109E-04
  167010 -0.00000000E+00
  167011 -0.00000000E+00
  167012 -3.88608109E-04
  167013 -0.00000000E+00
  167014 -0.00000000E+00
  167015 -0.00000000E+00
  167016 -0.00000000E+00
  167017 -0.00000000E+00
  167018 -0.00000000E+00
  167019 -0.00000000E+00
  167020 -0.00000000E+00
  167021 -1.39898919E-03
  167022 -0.00000000E+00
  167023 -1.16582433E-03
  167403 -2.33164865E-04
  167405 -0.00000000E+00
  167406 -3.88608109E-04
  167407 -0.00000000E+00
  167408 -7.77216217E-05
  167409 -1.55443243E-04
  167410 -0.00000000E+00
  167411 -7.77216217E-05
  167412 -1.55443243E-04
  167413 -5.44051352E-04
  167414 -3.88608109E-04
  167415 -6.99494595E-04
  167416 -3.88608109E-04
  167417 -6.99494595E-04
  167418 -2.33164865E-04
  167419 -7.77216217E-05
  167420 -6.21772974E-04
  167421 -3.88608109E-04
  167422 -7.77216217E-05
  167424 -3.88608109E-04
  167425 -4.58557568E-03
  167427 -3.88608109E-04
  167428 -9.32659461E-04
  167429 -6.99494595E-04
  167430 -3.88608109E-04
  167431 -3.10886487E-04
  167432 -3.10886487E-03
  167433 -1.63215406E-03
  167434 -2.72025676E-03
  167435 -2.72025676E-03
  167436 -4.81874055E-03
  167437 -4.81874055E-03
  167438 -8.54937839E-04
  167439 -1.55443243E-03
  167440 -7.77216217E-03
  167441 -3.88608109E-03
  167442 -2.17620541E-03
  167443 -1.39898919E-03
  167444 -2.17620541E-03
  167445 -3.10886487E-04
  167446 -0.00000000E+00
  167447 -0.00000000E+00
  167448 -0.00000000E+00
  167449 -0.00000000E+00
  167450 -0.00000000E+00
  167451 -0.00000000E+00
  167452 -0.00000000E+00
  167453 -0.00000000E+00
  167454 -0.00000000E+00
  167455 -0.00000000E+00
  167456 -4.66329730E-04
  167457 -7.77216217E-05
  167458 -0.00000000E+00
  167459 -1.16582433E-03
  167460 -1.55443243E-03
  167461 -8.62710001E-03
  167836 -1.55443243E-04
  167838 -1.55443243E-04
  167839 -1.55443243E-04
  167840 -5.44051352E-04
  167841 -1.55443243E-04
  167842 -5.44051352E-04
  167843 -6.21772974E-04
  167844 -3.88608109E-04
  167845 -6.21772974E-04
  167846 -3.88608109E-04
  167847 -2.33164865E-04
  167848 -1.55443243E-04
  167849 -2.33164865E-04
  167850 -1.55443243E-04
  167851 -1.55443243E-04
  167852 -1.55443243E-04
  167853 -1.55443243E-04
  167854 -1.55443243E-04
  167855 -2.33164865E-04
  167856 -4.66329730E-04
  167857 -2.33164865E-04
  167858 -4.66329730E-04
  167859 -7.77216217E-04
  167860 -4.27468919E-03
  167861 -7.77216217E-04
  167862 -4.27468919E-03
  167863 -8.39393515E-03
  167864 -8.39393515E-03
  167865 -8.39393515E-03
  167866 -8.39393515E-03
  167867 -1.08810270E-03
  167868 -9.32659461E-04
  167869 -1.08810270E-03
  167870 -9.32659461E-04
  167871 -1.24354595E-03
  167872 -0.00000000E+00
  167873 -1.24354595E-03
  167874 -0.00000000E+00
  167875 -0.00000000E+00
  167876 -0.00000000E+00
  167877 -0.00000000E+00
  167878 -0.00000000E+00
  167879 -0.00000000E+00
  167880 -0.00000000E+00
  167881 -0.00000000E+00
  167882 -0.00000000E+00
  167883 -1.08810270E-03
  167884 -7.77216217E-04
  167885 -1.08810270E-03
  167886 -7.77216217E-04
  167887 -0.00000000E+00
  167889 -0.00000000E+00
  168238 -7.77216217E-05
  168240 -1.70987568E-03
  168241 -7.77216217E-05
  168242 -1.55443243E-04
  168243 -1.70987568E-03
  168244 -3.88608109E-04
  168245 -1.63215406E-03
  168246 -1.55443243E-04
  168247 -3.10886487E-04
  168248 -7.77216217E-05
  168249 -0.00000000E+00
  168250 -0.00000000E+00
  168251 -0.00000000E+00
  168252 -0.00000000E+00
  168253 -0.00000000E+00
  168254 -7.77216217E-04
  168255 -0.00000000E+00
  168256 -0.00000000E+00
  168257 -3.10886487E-04
  168258 -7.77216217E-05
  168259 -7.77216217E-05
  168260 -0.00000000E+00
  168261 -2.33164865E-04
  168262 -3.88608109E-04
  168263 -7.77216217E-05
  168264 -3.10886487E-04
  168265 -3.24876379E-02
  168266 -3.24876379E-02
  168267 -7.46127568E-03
  168268 -7.46127568E-03
  168269 -8.62710001E-03
  168270 -5.44051352E-04
  168271 -1.63215406E-03
  168272 -4.66329730E-04
  168273 -6.99494595E-04
  168274 -0.00000000E+00
  168275 -8.54937839E-04
  168276 -3.88608109E-04
  168277 -0.00000000E+00
  168278 -0.00000000E+00
  168279 -0.00000000E+00
  168280 -0.00000000E+00
  168281 -0.00000000E+00
  168282 -0.00000000E+00
  168283 -0.00000000E+00
  168284 -0.00000000E+00
  168285 -0.00000000E+00
  168286 -4.66329730E-04
  168287 -0.00000000E+00
  168288 -0.00000000E+00
  168289 -7.77216217E-04
  168291 -3.10886487E-04
  168635 -7.77216217E-05
  168636 -0.00000000E+00
  168637 -1.70987568E-03
  168638 -0.00000000E+00
  168639 -0.00000000E+00
  168640 -1.70987568E-03
  168641 -3.88608109E-04
  168642 -0.00000000E+00
  168643 -6.21772974E-04
  168644 -3.10886487E-04
  168645 -7.77216217E-05
  168646 -7.77216217E-05
  168647 -7.77216217E-05
  168648 -0.00000000E+00
  168649 -0.00000000E+00
  168650 -0.00000000E+00
  168651 -0.00000000E+00
  168652 -0.00000000E+00
  168653 -0.00000000E+00
  168654 -0.00000000E+00
  168655 -0.00000000E+00
  168656 -7.77216217E-05
  168657 -0.00000000E+00
  168658 -0.00000000E+00
  168659 -0.00000000E+00
  168660 -7.77216217E-05
  168661 -3.10886487E-04
  168662 -1.55443243E-04
  168663 -2.33164865E-04
  168664 -7.46127568E-03
  168665 -7.46127568E-03
  168666 -1.24354595E-03
  168667 -1.24354595E-03
  168668 -1.63215406E-03
  168669 -4.66329730E-04
  168670 -3.34202973E-03
  168671 -7.77216217E-05
  168672 -8.54937839E-04
  168673 -3.88608109E-04
  168674 -0.00000000E+00
  168675 -0.00000000E+00
  168676 -0.00000000E+00
  168677 -0.00000000E+00
  168678 -0.00000000E+00
  168679 -0.00000000E+00
  168680 -0.00000000E+00
  168681 -0.00000000E+00
  168682 -0.00000000E+00
  168683 -1.55443243E-04
  168684 -0.00000000E+00
  168685 -0.00000000E+00
  168686 -0.00000000E+00
  168687 -0.00000000E+00
  168688 -3.10886487E-04
  168690 -1.55443243E-03
  168980 -1.55443243E-04
  168981 -1.55443243E-04
  168983 -0.00000000E+00
  168984 -0.00000000E+00
  168985 -0.00000000E+00
  168986 -0.00000000E+00
  168987 -2.33164865E-04
  168988 -0.00000000E+00
  168989 -2.33164865E-04
  168992 -2.33164865E-04
  169005 -7.77216217E-05
  169006 -0.00000000E+00
  169007 -7.77216217E-05
  169008 -0.00000000E+00
  169009 -7.77216217E-05
  169010 -1.55443243E-04
  169011 -5.44051352E-04
  169012 -1.55443243E-04
  169013 -5.44051352E-04
  169014 -5.44051352E-04
  169015 -3.10886487E-04
  169016 -5.44051352E-04
  169017 -3.10886487E-04
  169018 -0.00000000E+00
  169019 -0.00000000E+00
  169020 -0.00000000E+00
  169021 -0.00000000E+00
  169022 -0.00000000E+00
  169023 -0.00000000E+00
  169024 -0.00000000E+00
  169025 -0.00000000E+00
  169026 -0.00000000E+00
  169027 -7.77216217E-05
  169028 -0.00000000E+00
  169029 -7.77216217E-05
  169030 -0.00000000E+00
  169031 -0.00000000E+00
  169032 -0.00000000E+00
  169033 -0.00000000E+00
  169034 -0.00000000E+00
  169035 -6.21772974E-04
  169036 -0.00000000E+00
  169037 -6.21772974E-04
  169038 -1.08810270E-03
  169039 -1.08810270E-03
  169040 -1.08810270E-03
  169041 -1.08810270E-03
  169042 -1.16582433E-03
  169043 -0.00000000E+00
  169044 -1.16582433E-03
  169045 -0.00000000E+00
  169046 -5.44051352E-04
  169047 -0.00000000E+00
  169048 -5.44051352E-04
  169049 -0.00000000E+00
  169050 -7.77216217E-05
  169051 -0.00000000E+00
  169052 -7.77216217E-05
  169053 -0.00000000E+00
  169054 -0.00000000E+00
  169055 -0.00000000E+00
  169056 -0.00000000E+00
  169057 -0.00000000E+00
  169058 -0.00000000E+00
  169059 -0.00000000E+00
  169060 -0.00000000E+00
  169061 -0.00000000E+00
  169062 -9.01570812E-03
  169346 -2.33164865E-04
  169347 -7.77216217E-04
  169348 -0.00000000E+00
  169349 -7.77216217E-04
  169350 -0.00000000E+00
  169351 -0.00000000E+00
  169352 -0.00000000E+00
  169353 -0.00000000E+00
  169354 -0.00000000E+00
  169355 -0.00000000E+00
  169356 -2.33164865E-04
  169357 -0.00000000E+00
  169358 -7.77216217E-05
  169359 -2.33164865E-04
  169360 -0.00000000E+00
  169361 -1.55443243E-04
  169370 -7.77216217E-05
  169371 -0.00000000E+00
  169372 -0.00000000E+00
  169373 -7.77216217E-05
  169374 -7.77216217E-05
  169375 -0.00000000E+00
  169376 -7.77216217E-05
  169377 -7.77216217E-05
  169378 -0.00000000E+00
  169379 -7.77216217E-05
  169380 -5.44051352E-04
  169381 -3.10886487E-04
  169382 -2.33164865E-04
  169383 -5.44051352E-04
  169384 -7.77216217E-05
  169385 -2.33164865E-04
  169386 -7.77216217E-05
  169387 -7.77216217E-05
  169388 -7.77216217E-05
  169389 -0.00000000E+00
  169390 -0.00000000E+00
  169391 -0.00000000E+00
  169392 -0.00000000E+00
  169393 -0.00000000E+00
  169394 -0.00000000E+00
  169395 -0.00000000E+00
  169396 -0.00000000E+00
  169397 -0.00000000E+00
  169398 -0.00000000E+00
  169399 -3.10886487E-04
  169400 -0.00000000E+00
  169401 -4.66329730E-04
  169402 -1.55443243E-04
  169403 -1.55443243E-04
  169404 -6.99494595E-04
  169405 -4.66329730E-04
  169406 -0.00000000E+00
  169407 -3.88608109E-04
  169408 -3.88608109E-04
  169409 -0.00000000E+00
  169410 -0.00000000E+00
  169411 -6.99494595E-04
  169412 -3.88608109E-04
  169413 -7.77216217E-05
  169414 -4.66329730E-04
  169415 -0.00000000E+00
  169416 -0.00000000E+00
  169417 -1.55443243E-04
  169418 -0.00000000E+00
  169419 -1.55443243E-04
  169420 -0.00000000E+00
  169421 -7.77216217E-05
  169422 -7.77216217E-05
  169423 -0.00000000E+00
  169424 -1.55443243E-03
  169425 -7.77216217E-05
  169426 -1.39898919E-03
  169427 -1.70987568E-03
  169428 -1.55443243E-04
  169429 -9.32659461E-04
  169430 -1.39898919E-03
  169431 -5.44051352E-04
  169432 -1.55443243E-04
  169433 -1.46116649E-02
  169434 -1.58552108E-02
  169435 -1.55443243E-04
  169437 -1.58552108E-02
  169695 -0.00000000E+00
  169697 -0.00000000E+00
  169698 -0.00000000E+00
  169699 -0.00000000E+00
  169700 -0.00000000E+00
  169701 -0.00000000E+00
  169702 -0.00000000E+00
  169703 -0.00000000E+00
  169704 -0.00000000E+00
  169705 -0.00000000E+00
  169706 -0.00000000E+00
  169707 -2.33164865E-04
  169708 -0.00000000E+00
  169709 -2.33164865E-04
  169710 -7.77216217E-04
  169711 -0.00000000E+00
  169712 -1.55443243E-04
  169713 -7.77216217E-05
  169714 -0.00000000E+00
  169715 -0.00000000E+00
  169716 -0.00000000E+00
  169717 -0.00000000E+00
  169718 -0.00000000E+00
  169719 -7.77216217E-05
  169720 -0.00000000E+00
  169721 -0.00000000E+00
  169722 -1.55443243E-04
  169731 -7.77216217E-05
  169733 -5.44051352E-04
  169734 -7.77216217E-05
  169735 -7.77216217E-05
  169736 -3.88608109E-04
  169737 -3.88608109E-04
  169738 -7.77216217E-05
  169739 -0.00000000E+00
  169740 -8.54937839E-04
  169741 -3.10886487E-04
  169742 -3.10886487E-04
  169743 -2.33164865E-04
  169744 -5.44051352E-04
  169745 -2.33164865E-04
  169746 -2.33164865E-04
  169747 -7.77216217E-05
  169748 -2.33164865E-04
  169749 -0.00000000E+00
  169750 -0.00000000E+00
  169751 -0.00000000E+00
  169752 -1.55443243E-04
  169753 -0.00000000E+00
  169754 -0.00000000E+00
  169755 -0.00000000E+00
  169756 -0.00000000E+00
  169757 -0.00000000E+00
  169758 -0.00000000E+00
  169759 -0.00000000E+00
  169760 -0.00000000E+00
  169761 -1.55443243E-04
  169762 -4.66329730E-04
  169763 -1.55443243E-04
  169764 -7.77216217E-05
  169765 -1.55443243E-04
  169766 -4.66329730E-04
  169767 -0.00000000E+00
  169768 -0.00000000E+00
  169769 -0.00000000E+00
  169770 -0.00000000E+00
  169771 -0.00000000E+00
  169772 -7.77216217E-05
  169773 -7.77216217E-05
  169774 -7.77216217E-05
  169775 -4.66329730E-04
  169776 -0.00000000E+00
  169777 -4.66329730E-04
  169778 -1.55443243E-04
  169779 -0.00000000E+00
  169780 -0.00000000E+00
  169781 -7.77216217E-05
  169782 -7.77216217E-05
  169783 -7.77216217E-05
  169784 -7.77216217E-05
  169785 -1.16582433E-03
  169786 -7.77216217E-05
  169787 -1.39898919E-03
  169788 -1.16582433E-03
  169789 -1.55443243E-04
  169790 -9.32659461E-04
  169791 -1.39898919E-03
  169792 -7.77216217E-05
  169794 -1.46116649E-02
  169795 -1.58552108E-02
  169798 -1.58552108E-02
  170057 -0.00000000E+00
  170058 -0.00000000E+00
  170060 -0.00000000E+00
  170061 -0.00000000E+00
  170062 -0.00000000E+00
  170063 -0.00000000E+00
  170064 -0.00000000E+00
  170065 -0.00000000E+00
  170066 -2.33164865E-04
  170067 -0.00000000E+00
  170068 -2.33164865E-04
  170069 -0.00000000E+00
  170070 -0.00000000E+00
  170071 -0.00000000E+00
  170072 -0.00000000E+00
  170073 -0.00000000E+00
  170074 -0.00000000E+00
  170075 -0.00000000E+00
  170076 -0.00000000E+00
  170077 -0.00000000E+00
  170078 -0.00000000E+00
  170079 -0.00000000E+00
  170090 -5.44051352E-04
  170092 -5.44051352E-04
  170093 -3.10886487E-04
  170094 -3.88608109E-04
  170095 -3.10886487E-04
  170096 -3.88608109E-04
  170097 -3.10886487E-04
  170098 -7.77216217E-05
  170099 -3.10886487E-04
  170100 -7.77216217E-05
  170101 -2.56481352E-03
  170102 -0.00000000E+00
  170103 -2.56481352E-03
  170104 -0.00000000E+00
  170105 -0.00000000E+00
  170106 -0.00000000E+00
  170107 -0.00000000E+00
  170108 -0.00000000E+00
  170109 -0.00000000E+00
  170110 -0.00000000E+00
  170111 -0.00000000E+00
  170112 -0.00000000E+00
  170113 -0.00000000E+00
  170114 -0.00000000E+00
  170115 -0.00000000E+00
  170116 -0.00000000E+00
  170117 -0.00000000E+00
  170118 -0.00000000E+00
  170119 -0.00000000E+00
  170120 -0.00000000E+00
  170121 -0.00000000E+00
  170122 -0.00000000E+00
  170123 -0.00000000E+00
  170124 -0.00000000E+00
  170125 -0.00000000E+00
  170126 -0.00000000E+00
  170127 -0.00000000E+00
  170128 -0.00000000E+00
  170129 -0.00000000E+00
  170130 -0.00000000E+00
  170131 -0.00000000E+00
  170132 -0.00000000E+00
  170133 -7.77216217E-05
  170134 -3.10886487E-04
  170135 -7.77216217E-05
  170136 -3.10886487E-04
  170137 -2.33164865E-04
  170138 -2.33164865E-04
  170139 -2.33164865E-04
  170140 -2.33164865E-04
  170141 -4.66329730E-04
  170142 -3.10886487E-04
  170143 -4.66329730E-04
  170144 -3.10886487E-04
  170145 -3.10886487E-04
  170146 -7.77216217E-05
  170147 -3.10886487E-04
  170149 -7.77216217E-05
  170414 -0.00000000E+00
  170416 -0.00000000E+00
  170417 -7.77216217E-05
  170418 -0.00000000E+00
  170419 -7.77216217E-05
  170420 -7.77216217E-05
  170421 -3.10886487E-04
  170422 -7.77216217E-05
  170423 -3.10886487E-04
  170424 -7.77216217E-05
  170425 -0.00000000E+00
  170426 -7.77216217E-05
  170427 -0.00000000E+00
  170428 -0.00000000E+00
  170429 -0.00000000E+00
  170430 -0.00000000E+00
  170431 -0.00000000E+00
  170432 -0.00000000E+00
  170433 -0.00000000E+00
  170434 -0.00000000E+00
  170435 -0.00000000E+00
  170436 -7.77216217E-05
  170438 -7.77216217E-05
  170439 -0.00000000E+00
  170442 -7.77216217E-05
  170445 -0.00000000E+00
  170446 -0.00000000E+00
  170447 -0.00000000E+00
  170448 -7.77216217E-05
  170449 -7.77216217E-05
  170450 -7.77216217E-05
  170451 -7.77216217E-05
  170452 -2.33164865E-04
  170453 -7.77216217E-05
  170454 -2.33164865E-04
  170455 -7.77216217E-05
  170456 -7.77216217E-05
  170457 -0.00000000E+00
  170458 -7.77216217E-05
  170459 -0.00000000E+00
  170460 -0.00000000E+00
  170461 -0.00000000E+00
  170462 -0.00000000E+00
  170463 -0.00000000E+00
  170464 -0.00000000E+00
  170465 -0.00000000E+00
  170466 -0.00000000E+00
  170467 -0.00000000E+00
  170468 -0.00000000E+00
  170469 -0.00000000E+00
  170470 -0.00000000E+00
  170471 -0.00000000E+00
  170472 -0.00000000E+00
  170473 -0.00000000E+00
  170474 -0.00000000E+00
  170475 -0.00000000E+00
  170476 -0.00000000E+00
  170477 -0.00000000E+00
  170478 -0.00000000E+00
  170479 -0.00000000E+00
  170480 -0.00000000E+00
  170481 -0.00000000E+00
  170482 -0.00000000E+00
  170483 -0.00000000E+00
  170484 -0.00000000E+00
  170485 -0.00000000E+00
  170486 -0.00000000E+00
  170487 -0.00000000E+00
  170488 -0.00000000E+00
  170489 -3.10886487E-04
  170490 -0.00000000E+00
  170491 -3.10886487E-04
  170492 -7.77216217E-05
  170493 -7.77216217E-05
  170494 -7.77216217E-05
  170495 -7.77216217E-05
  170496 -7.77216217E-05
  170497 -2.33164865E-04
  170498 -7.77216217E-05
  170499 -2.33164865E-04
  170762 -0.00000000E+00
  170763 -1.55443243E-04
  170765 -1.55443243E-04
  170766 -1.55443243E-04
  170767 -7.77216217E-05
  170768 -1.55443243E-04
  170769 -3.88608109E-04
  170770 -0.00000000E+00
  170771 -0.00000000E+00
  170772 -0.00000000E+00
  170773 -0.00000000E+00
  170774 -0.00000000E+00
  170775 -0.00000000E+00
  170776 -0.00000000E+00
  170777 -0.00000000E+00
  170778 -0.00000000E+00
  170779 -0.00000000E+00
  170780 -0.00000000E+00
  170781 -0.00000000E+00
  170782 -0.00000000E+00
  170783 -0.00000000E+00
  170784 -0.00000000E+00
  170785 -0.00000000E+00
  170786 -0.00000000E+00
  170787 -0.00000000E+00
  170788 -0.00000000E+00
  170789 -0.00000000E+00
  170790 -0.00000000E+00
  170791 -0.00000000E+00
  170792 -0.00000000E+00
  170793 -0.00000000E+00
  170794 -0.00000000E+00
  170795 -0.00000000E+00
  170796 -0.00000000E+00
  170797 -0.00000000E+00
  170798 -0.00000000E+00
  170799 -0.00000000E+00
  170800 -0.00000000E+00
  170801 -0.00000000E+00
  170802 -0.00000000E+00
  170803 -0.00000000E+00
  170804 -0.00000000E+00
  170805 -0.00000000E+00
  170806 -0.00000000E+00
  170807 -0.00000000E+00
  170808 -0.00000000E+00
  170809 -0.00000000E+00
  170810 -0.00000000E+00
  170811 -0.00000000E+00
  170812 -0.00000000E+00
  170813 -0.00000000E+00
  170814 -0.00000000E+00
  170815 -0.00000000E+00
  170816 -0.00000000E+00
  170817 -0.00000000E+00
  170818 -0.00000000E+00
  170819 -0.00000000E+00
  170820 -0.00000000E+00
  170821 -0.00000000E+00
  170822 -3.10886487E-04
  170823 -0.00000000E+00
  170824 -0.00000000E+00
  170825 -0.00000000E+00
  170826 -0.00000000E+00
  170827 -0.00000000E+00
  170828 -0.00000000E+00
  170829 -0.00000000E+00
  170830 -0.00000000E+00
  170831 -0.00000000E+00
  170832 -0.00000000E+00
  170833 -0.00000000E+00
  170834 -7.77216217E-05
  170835 -3.88608109E-04
  170836 -7.77216217E-05
  170837 -3.10886487E-04
  170838 -7.77216217E-05
  170839 -0.00000000E+00
  170840 -7.77216217E-05
  170841 -0.00000000E+00
  170842 -0.00000000E+00
  170843 -0.00000000E+00
  170844 -0.00000000E+00
  170845 -0.00000000E+00
  170846 -0.00000000E+00
  170848 -0.00000000E+00
  171104 -1.55443243E-04
  171105 -3.88608109E-04
  171106 -1.55443243E-04
  171107 -0.00000000E+00
  171108 -0.00000000E+00
  171109 -0.00000000E+00
  171110 -0.00000000E+00
  171111 -0.00000000E+00
  171112 -0.00000000E+00
  171113 -0.00000000E+00
  171114 -0.00000000E+00
  171115 -0.00000000E+00
  171116 -0.00000000E+00
  171117 -0.00000000E+00
  171118 -0.00000000E+00
  171119 -0.00000000E+00
  171120 -0.00000000E+00
  171121 -0.00000000E+00
  171122 -0.00000000E+00
  171123 -0.00000000E+00
  171124 -0.00000000E+00
  171125 -0.00000000E+00
  171126 -0.00000000E+00
  171127 -0.00000000E+00
  171128 -0.00000000E+00
  171129 -0.00000000E+00
  171130 -0.00000000E+00
  171131 -0.00000000E+00
  171132 -0.00000000E+00
  171133 -0.00000000E+00
  171134 -0.00000000E+00
  171135 -0.00000000E+00
  171136 -0.00000000E+00
  171137 -0.00000000E+00
  171138 -0.00000000E+00
  171139 -0.00000000E+00
  171140 -0.00000000E+00
  171141 -0.00000000E+00
  171142 -0.00000000E+00
  171143 -0.00000000E+00
  171144 -0.00000000E+00
  171145 -0.00000000E+00
  171146 -0.00000000E+00
  171147 -0.00000000E+00
  171148 -0.00000000E+00
  171149 -0.00000000E+00
  171150 -0.00000000E+00
  171151 -0.00000000E+00
  171152 -0.00000000E+00
  171153 -0.00000000E+00
  171154 -0.00000000E+00
  171155 -0.00000000E+00
  171156 -0.00000000E+00
  171157 -0.00000000E+00
  171158 -0.00000000E+00
  171159 -0.00000000E+00
  171160 -0.00000000E+00
  171161 -0.00000000E+00
  171162 -0.00000000E+00
  171163 -0.00000000E+00
  171164 -0.00000000E+00
  171165 -0.00000000E+00
  171166 -0.00000000E+00
  171167 -0.00000000E+00
  171168 -0.00000000E+00
  171169 -0.00000000E+00
  171170 -7.77216217E-05
  171171 -7.77216217E-05
  171172 -7.77216217E-05
  171173 -3.10886487E-04
  171174 -7.77216217E-05
  171175 -2.33164865E-04
  171176 -7.77216217E-05
  171177 -0.00000000E+00
  171178 -7.77216217E-05
  171179 -0.00000000E+00
  171180 -0.00000000E+00
  171181 -0.00000000E+00
  171182 -0.00000000E+00
  171183 -0.00000000E+00
  171184 -0.00000000E+00
  171185 -0.00000000E+00
  171186 -0.00000000E+00
  171187 -0.00000000E+00
  171188 -0.00000000E+00
  171190 -0.00000000E+00
  171191 -0.00000000E+00
  171194 -0.00000000E+00
  171439 -0.00000000E+00
  171441 -0.00000000E+00
  171442 -0.00000000E+00
  171443 -0.00000000E+00
  171444 -0.00000000E+00
  171445 -0.00000000E+00
  171446 -0.00000000E+00
  171447 -0.00000000E+00
  171448 -0.00000000E+00
  171449 -0.00000000E+00
  171450 -0.00000000E+00
  171451 -0.00000000E+00
  171452 -0.00000000E+00
  171453 -0.00000000E+00
  171454 -0.00000000E+00
  171455 -0.00000000E+00
  171456 -0.00000000E+00
  171457 -0.00000000E+00
  171458 -0.00000000E+00
  171459 -0.00000000E+00
  171460 -0.00000000E+00
  171461 -0.00000000E+00
  171462 -0.00000000E+00
  171463 -0.00000000E+00
  171464 -0.00000000E+00
  171465 -0.00000000E+00
  171466 -0.00000000E+00
  171467 -0.00000000E+00
  171468 -0.00000000E+00
  171469 -0.00000000E+00
  171470 -0.00000000E+00
  171471 -0.00000000E+00
  171472 -0.00000000E+00
  171473 -0.00000000E+00
  171474 -0.00000000E+00
  171475 -0.00000000E+00
  171476 -0.00000000E+00
  171477 -0.00000000E+00
  171478 -0.00000000E+00
  171479 -0.00000000E+00
  171480 -0.00000000E+00
  171481 -0.00000000E+00
  171482 -0.00000000E+00
  171483 -0.00000000E+00
  171484 -0.00000000E+00
  171485 -0.00000000E+00
  171486 -0.00000000E+00
  171487 -0.00000000E+00
  171488 -0.00000000E+00
  171489 -0.00000000E+00
  171490 -0.00000000E+00
  171491 -0.00000000E+00
  171492 -0.00000000E+00
  171493 -0.00000000E+00
  171494 -0.00000000E+00
  171495 -0.00000000E+00
  171496 -0.00000000E+00
  171497 -0.00000000E+00
  171498 -0.00000000E+00
  171499 -0.00000000E+00
  171500 -0.00000000E+00
  171501 -0.00000000E+00
  171502 -7.77216217E-05
  171503 -7.77216217E-05
  171504 -7.77216217E-05
  171505 -7.77216217E-05
  171506 -3.10886487E-04
  171507 -2.33164865E-04
  171508 -3.10886487E-04
  171509 -2.33164865E-04
  171510 -0.00000000E+00
  171511 -0.00000000E+00
  171512 -0.00000000E+00
  171513 -0.00000000E+00
  171514 -0.00000000E+00
  171515 -0.00000000E+00
  171516 -0.00000000E+00
  171517 -0.00000000E+00
  171522 -0.00000000E+00
  171523 -0.00000000E+00
  171524 -0.00000000E+00
  171525 -0.00000000E+00
  171526 -0.00000000E+00
  171527 -0.00000000E+00
  171528 -0.00000000E+00
  171529 -0.00000000E+00
  171530 -0.00000000E+00
  171531 -0.00000000E+00
  171532 -0.00000000E+00
  171533 -0.00000000E+00
  171759 -0.00000000E+00
  171760 -0.00000000E+00
  171761 -0.00000000E+00
  171762 -0.00000000E+00
  171763 -0.00000000E+00
  171764 -0.00000000E+00
  171765 -0.00000000E+00
  171766 -0.00000000E+00
  171767 -0.00000000E+00
  171768 -0.00000000E+00
  171769 -0.00000000E+00
  171770 -0.00000000E+00
  171771 -0.00000000E+00
  171772 -0.00000000E+00
  171773 -6.99494595E-04
  171774 -0.00000000E+00
  171775 -0.00000000E+00
  171776 -0.00000000E+00
  171777 -0.00000000E+00
  171778 -0.00000000E+00
  171779 -0.00000000E+00
  171780 -0.00000000E+00
  171781 -0.00000000E+00
  171782 -0.00000000E+00
  171783 -0.00000000E+00
  171784 -0.00000000E+00
  171785 -0.00000000E+00
  171786 -0.00000000E+00
  171787 -0.00000000E+00
  171788 -0.00000000E+00
  171789 -0.00000000E+00
  171790 -0.00000000E+00
  171791 -0.00000000E+00
  171792 -0.00000000E+00
  171793 -0.00000000E+00
  171794 -0.00000000E+00
  171795 -0.00000000E+00
  171796 -0.00000000E+00
  171797 -0.00000000E+00
  171798 -0.00000000E+00
  171799 -0.00000000E+00
  171800 -0.00000000E+00
  171801 -0.00000000E+00
  171802 -0.00000000E+00