# File generated by Flopy version 3.9.1 on 04/13/2026 at 08:32:26.
BEGIN options
END options

BEGIN griddata
  strt
    INTERNAL  FACTOR  1.0
        -6.50000000      -6.50000000      -6.50000000      -6.50000000      -6.50000000      -6.50000000      -6.50000000      -6.50000000       0.50000000       0.50000000       0.50000000       0.50000000      -0.50000000      -0.50000000      -0.50000000      -0.50000000      -0.50000000      -0.50000000      -0.50000000      -0.50000000
        -0.50000000      -0.50000000      -0.50000000      -0.50000000      -6.50000000      -6.50000000      -6.50000000      -6.50000000      -6.50000000      -6.50000000      -6.50000000      -7.50000000      -9.50000000      -9.50000000      -9.50000000      -6.50000000      -6.50000000      -6.50000000      -6.50000000      -7.50000000
        -7.50000000      -7.50000000      -7.50000000      -6.50000000      -6.50000000      -6.50000000      -6.50000000      -2.50000000      -2.50000000      -2.50000000      -2.50000000      -7.50000000      -7.50000000      -7.50000000      -7.50000000      -0.50000000      -0.50000000      -0.50000000      -0.50000000      -1.50000000
        -1.50000000      -1.50000000      -1.50000000      -0.50000000      -0.50000000      -0.50000000      -0.50000000       1.50000000       1.50000000       1.50000000       1.50000000      -0.50000000      -0.50000000      -0.50000000      -0.50000000      -4.50000000      -4.50000000      -4.50000000      -4.50000000      -4.50000000
        -4.50000000      -4.50000000      -4.50000000       1.50000000       1.50000000       1.50000000       1.50000000       0.50000000       0.50000000       0.50000000       0.50000000      -4.50000000      -4.50000000      -4.50000000      -4.50000000      -9.50000000      -9.50000000      -9.50000000      -6.50000000      -6.50000000
        -6.50000000      -8.50000000      -8.50000000      -8.50000000      -8.50000000      -6.50000000      -6.50000000      -6.50000000      -6.50000000      -6.50000000      -6.50000000      -6.50000000      -6.50000000      -6.50000000      -6.50000000      -6.50000000      -6.50000000      -3.50000000      -3.50000000      -3.50000000
        -3.50000000       0.50000000       0.50000000       0.50000000       0.50000000       0.50000000       0.50000000       0.50000000       0.50000000      -0.50000000      -0.50000000      -0.50000000      -0.50000000      -6.50000000      -6.50000000      -6.50000000      -6.50000000      -8.50000000      -8.50000000      -8.50000000
        -8.50000000       0.50000000       0.50000000       0.50000000       0.50000000      -0.50000000      -0.50000000      -0.50000000      -0.50000000      -0.50000000      -0.50000000      -0.50000000      -0.50000000       1.50000000       1.50000000       1.50000000       1.50000000       2.56210373       2.58975691       2.56678717
         2.59493548       2.50000000       2.50000000       2.50000000       2.50000000      -0.50000000      -0.50000000      -0.50000000      -0.50000000      -1.50000000      -1.50000000      -1.50000000      -1.50000000      -1.50000000      -1.50000000      -1.50000000      -1.50000000      -9.50000000      -9.50000000      -6.50000000
        -6.50000000      -6.50000000      -8.50000000      -8.50000000      -8.50000000      -8.50000000      -6.50000000      -6.50000000      -6.50000000      -6.50000000      -3.50000000      -3.50000000      -3.50000000      -3.50000000       1.50000000       1.50000000       1.50000000       1.50000000       1.50000000       1.50000000
         1.50000000       1.50000000       1.50000000       1.50000000       1.50000000       1.50000000       1.50000000       1.50000000       1.50000000       1.50000000       1.50000000       1.50000000       1.50000000       1.50000000       0.50000000       0.50000000       0.50000000       0.50000000      -0.50000000      -0.50000000
        -0.50000000      -0.50000000      -0.50000000      -0.50000000      -0.50000000      -0.50000000      -4.50000000      -4.50000000      -4.50000000      -4.50000000      -6.50000000      -6.50000000      -6.50000000      -6.50000000      -6.50000000      -6.50000000      -6.50000000      -6.50000000      -6.50000000      -6.50000000
        -6.50000000      -6.50000000      -6.50000000      -6.50000000      -6.50000000      -6.50000000      -6.50000000      -6.50000000      -6.50000000      -6.50000000      -6.50000000      -6.50000000      -6.50000000      -6.50000000      -0.50000000      -0.50000000      -0.50000000      -0.50000000       1.50000000       1.50000000
         1.50000000       1.50000000      -6.50000000      -6.50000000      -6.50000000      -6.50000000      -3.50000000      -3.50000000      -3.50000000      -3.50000000      -9.50000000      -9.50000000      -9.50000000      -9.50000000      -6.50000000      -6.50000000      -6.50000000      -6.50000000      -6.50000000      -6.50000000
        -6.50000000      -6.50000000      -7.50000000      -7.50000000      -7.50000000      -7.50000000       1.79216906       1.82313786       1.78384855       1.81640114       1.85404290       1.88473772       1.84861404       1.88037603       1.50000000       1.50000000       1.50000000       1.50000000       1.97520641       2.00492054
         1.97299037       2.00318415       2.03451376       2.06405532       2.03318636       2.06308769       2.09361145       2.12324156       2.09297184       2.12291226       0.50000000       0.50000000       0.50000000       0.50000000      -0.50000000      -0.50000000      -0.50000000      -0.50000000       1.50000000       1.50000000
         1.50000000       1.50000000       0.50000000       0.50000000       0.50000000       0.50000000      -0.50000000      -0.50000000      -0.50000000      -0.50000000      -0.50000000      -0.50000000      -0.50000000      -0.50000000      -6.50000000      -6.50000000      -6.50000000      -6.50000000      -6.50000000      -6.50000000
        -6.50000000      -6.50000000      -6.50000000      -6.50000000      -6.50000000      -6.50000000      -6.50000000      -6.50000000      -6.50000000      -6.50000000      -6.50000000      -6.50000000      -6.50000000      -6.50000000      -6.50000000      -6.50000000      -6.50000000      -6.50000000      -6.50000000      -6.50000000
        -6.50000000      -6.50000000      -6.50000000      -6.50000000      -6.50000000      -6.50000000      -7.50000000      -7.50000000      -7.50000000      -7.50000000      -8.50000000      -8.50000000      -8.50000000      -8.50000000      -9.50000000      -2.50000000      -2.50000000      -0.50000000      -0.50000000      -0.50000000
        -0.50000000       1.86805135       1.86100618       1.87209066       1.86505334       1.85237824       1.85141281       1.85632224       1.85504915      -2.50000000      -2.50000000      -2.50000000      -2.50000000      -7.50000000      -9.50000000      -9.50000000      -9.50000000       0.50000000       0.50000000       0.50000000
         0.50000000       1.58573310       1.61135776       1.56410252       1.59293072       1.50000000       1.50000000       1.50000000       1.50000000       1.70781157       1.74244124       1.69858080       1.73552275       1.77700288       1.81110941       1.77195176       1.80752341       1.84456462       1.87730725       1.84210349
         1.87569660       1.90936467       1.94081768       1.90839145       1.94032188       1.97177532       2.00235769       1.97164081       2.00250372       2.03268478       2.06286934       2.03305849       2.06343967       2.09301257       2.12320175       2.09376538       2.12413585       0.50000000       0.50000000       0.50000000
         0.50000000       1.50000000       1.50000000       1.50000000       1.50000000       2.27680094       2.30822382       2.27889310       2.31062642       2.33986737       2.37169700       2.34261017       2.37480931       0.50000000       0.50000000       0.50000000       0.50000000      -0.50000000      -0.50000000      -0.50000000
        -0.50000000      -0.50000000      -0.50000000      -0.50000000      -0.50000000       0.50000000       0.50000000       0.50000000       0.50000000      -9.50000000      -9.50000000      -9.50000000      -9.50000000      -6.50000000      -6.50000000      -6.50000000      -6.50000000      -6.50000000      -6.50000000      -6.50000000
        -6.50000000      -6.50000000      -6.50000000      -6.50000000      -6.50000000      -6.50000000      -6.50000000      -6.50000000      -6.50000000      -4.50000000      -4.50000000      -4.50000000      -4.50000000      -6.50000000      -6.50000000      -6.50000000      -6.50000000      -6.50000000      -6.50000000      -6.50000000
        -6.50000000      -6.50000000      -6.50000000      -6.50000000      -6.50000000      -9.50000000      -9.50000000      -9.50000000      -9.50000000      -2.50000000      -2.50000000      -2.50000000      -2.50000000      -2.50000000      -2.50000000      -2.50000000      -1.50000000      -1.50000000      -1.50000000      -1.50000000
         0.50000000       0.50000000       0.50000000       0.50000000       1.89081721       1.88917678       1.89517286       1.89374011       1.88631980       1.88217963       1.89108581       1.88714128       1.87667884       1.86972745       1.88182579       1.87504434       1.86122125       1.85952481       1.86668514       1.86487508
         1.84699833       1.83251967       1.85240511       1.83791095       1.81592147       1.81980489       1.82119341       1.82393221      -9.50000000      -9.50000000      -9.50000000      -9.50000000      -9.50000000      -9.50000000      -9.50000000      -9.50000000      -9.50000000      -2.50000000      -2.50000000      -2.50000000
        -2.50000000      -2.50000000      -2.50000000      -2.50000000      -2.50000000      -0.50000000      -0.50000000      -0.50000000      -0.50000000       1.50148269       1.51808871       1.47736615       1.49648278       1.54379761       1.57626019       1.52579597       1.56228023       1.61304373       1.65204178       1.60293806
         1.64531029       1.69166732       1.73086777       1.68766307       1.72894289       1.76904013       1.80591355       1.76862529       1.80654765       1.84143921       1.87570331       1.84276955       1.87747196       1.90886522       1.94111668       1.91089114       1.94327849       1.97265641       2.00367531       1.97487776
         2.00591326       2.03434833       2.06483051       2.03658453       2.06706453       2.09525537       2.12573468       2.09749986       2.12801176       0.50000000       0.50000000       0.50000000       0.50000000       1.50000000       1.50000000       1.50000000       1.50000000       2.28140995       2.31342402       2.28435718
         2.31662171       2.34572290       2.37827067       2.34921021       2.38208540       0.50000000       0.50000000       0.50000000       0.50000000      -0.50000000      -0.50000000      -0.50000000      -0.50000000       0.50000000       0.50000000       0.50000000       0.50000000       2.60720718       2.63889217       2.61413775
         2.64633790       2.66996176       2.70028075       2.67792538       2.70875937       2.72971076       2.75811155       2.73869566       2.76758802       2.78534225       2.81126252       2.79528945       2.82165340       2.83573372       2.85861989       2.84653487       2.86979144       2.87978872       2.89911238       2.89128420
         2.91087853       2.91646833       2.93174002       2.92844485       2.94385928       2.94481757       2.95559855       2.95700420       2.96776886       2.96398867       2.96990272       2.97605003       2.98175278      -4.50000000      -4.50000000      -4.50000000      -4.50000000      -5.50000000      -5.50000000      -5.50000000
        -5.50000000      -7.50000000      -7.50000000      -7.50000000      -7.50000000      -9.50000000      -9.50000000      -9.50000000      -2.50000000      -2.50000000      -2.50000000      -2.50000000      -2.50000000       1.85429111       1.86306345       1.85651224       1.86555916       1.87096751       1.87797990       1.87373534
         1.88101831       1.88407664       1.88923256       1.88738507       1.89281159       1.89342071       1.89661157       1.89727212       1.90073850       1.89877225       1.89986543       1.90317924       1.90455851       1.89984817       1.89867055       1.90483489       1.90395998       1.89627398       1.89258925       1.90187657
         1.89851664       1.88753422       1.88101112       1.89379874       1.88762500       1.87290340       1.86287092       1.87987743       1.87012360       1.85885720       1.84452308       1.86637244       1.85238978       1.82789377       1.82981278       1.83608050       1.83753636       1.50000000       1.50000000       1.50000000
         1.50000000       0.50000000       0.50000000       0.50000000       0.50000000       1.50000000       1.50000000       1.50000000       1.50000000       0.50000000       0.50000000       0.50000000       0.50000000      -1.50000000      -1.50000000      -1.50000000      -1.50000000      -0.50000000      -0.50000000      -0.50000000
        -0.50000000       1.45612719       1.47812003       1.43978055       1.46492170       1.51142760       1.55219445       1.50243496       1.54749089       1.59678661       1.64240169       1.59578519       1.64422580       1.68721327       1.73022979       1.69097891       1.73519092       1.77105679       1.80967396       1.77664826
         1.81549959       1.84626798       1.88112234       1.85206791       1.88673819       1.91455121       1.94686311       1.91989643       1.95190039       1.97834272       2.00924329       1.98306776       2.01367357       2.03978461       2.07015385       2.04395186       2.07409894       2.10050742       2.13097334       2.10427707
         2.13461785       1.50000000       1.50000000       1.50000000       1.50000000       1.50000000       1.50000000       1.50000000       1.50000000       2.28773750       2.32022209       2.29155056       2.32422518       2.35307463       2.38625595       2.35731648       2.39078294       0.50000000       0.50000000       0.50000000
         0.50000000       1.50000000       1.50000000       1.50000000       1.50000000       2.55466962       2.58818451       2.56120469       2.59520944       2.62136869       2.65408685       2.62890181       2.66214114       2.68619737       2.71755368       2.69478020       2.72666662       2.74800567       2.77740107       2.75764436
         2.78755506       2.80558671       2.83240976       2.81623936       2.84353817       2.85771885       2.88136508       2.86929376       2.89335074       2.90320290       2.92309088       2.91555698       2.93576426       2.94089237       2.95647608       2.95382888       2.96961215       2.96971652       2.98049448       2.98298068
         2.99380675       2.98869753       2.99422058       3.00196856       3.00735064       2.99696667       2.99684810       3.00984430       3.00934857       2.99378798       2.98772258       3.00577143       2.99903188      -6.50000000      -6.50000000      -6.50000000      -6.50000000      -6.50000000      -6.50000000      -6.50000000
        -6.50000000       2.50000000       2.50000000       2.50000000       2.50000000      -9.50000000      -9.50000000      -9.50000000      -9.50000000      -2.50000000      -2.50000000      -2.50000000      -2.50000000      -2.50000000      -0.50000000      -0.50000000      -0.50000000      -0.50000000       1.56635092       1.58462112
         1.56722256       1.58579555       1.64724793       1.66383686       1.64854130       1.66544042       1.67988261       1.78465237       1.68179645       1.78630555       1.79802735       1.84861095       1.79998115       1.85064904       1.85879532       1.86812955       1.86113336       1.87076708       1.87659217       1.88416182
         1.87952986       1.88740167       1.89081678       1.89653445       1.89436232       1.90039096       1.90129072       1.90505920       1.90546545       1.90956166       1.90781040       1.90951068       1.91265265       1.91470767       1.91012106       1.90959572       1.91569100       1.91556054       1.90788028       1.90490964
         1.91426609       1.91174729       1.90060534       1.89487232       1.90793098       1.90272797       1.88759492       1.87824745       1.89602891       1.89163598       1.87494667       1.86151712       1.88455102       1.87187905       1.84577711       1.84714885       1.85696547       1.85864106       1.82410488       1.79761638
         1.83656372       1.81106327       1.76721207       1.73243476       1.78160168       1.74760691       1.69295670       1.64879653       1.70857187       1.66426574       1.50000000       1.50000000       1.50000000       1.50000000      -0.50000000      -0.50000000      -0.50000000      -0.50000000       1.43139992       1.42105109
         1.43391470       1.42238538       0.50000000       0.50000000       0.50000000       0.50000000       1.50000000       1.50000000       1.50000000       1.50000000       1.60123238       1.65169970       1.61439453       1.66563362       1.69957548       1.74422093       1.71348642       1.75758585       1.78564166       1.82416539
         1.79816662       1.83571992       1.86024566       1.89435597       1.87080418       1.90395491       1.92693952       1.95838954       1.93564893       1.96629562       1.98904493       2.01919290       1.99623993       2.02576958       2.04907404       2.07888789       2.05512295       2.08449616       2.10879789       2.13893567
         2.11404890       2.14390910       0.50000000       0.50000000       0.50000000       0.50000000       1.50000000       1.50000000       1.50000000       1.50000000       2.29579290       2.32862838       2.30045807       2.33342656       2.36193391       2.39566509       2.36692287       2.40089928       1.50000000       1.50000000
         1.50000000       1.50000000       2.49872492       2.53339697       2.50498439       2.54008095       2.56804360       2.60253661       2.57518582       2.61016582       2.63673814       2.67050209       2.64487780       2.67917019       2.70367557       2.73610041       2.71288443       2.74585650       2.76761458       2.79805364
         2.77791844       2.80889975       2.82725209       2.85504458       2.83862884       2.86693418       2.88126707       2.90575779       2.89364554       2.91859485       2.92835807       2.94891300       2.94161707       2.96255076       2.96727195       2.98328889       2.98123849       2.99752713       2.99682265       3.00773702
         3.01126788       3.02231624       3.01590085       3.02118814       3.03053185       3.03577834       3.02347831       3.02265665       3.03792317       3.03683773       3.01861523       3.01125460       3.03239781       3.02448461       3.00048635       2.98623725       3.01298687       2.99780439      -6.50000000      -6.50000000
        -6.50000000      -6.50000000      -6.50000000      -6.50000000      -6.50000000      -6.50000000      -6.50000000      -6.50000000      -6.50000000      -6.50000000      -0.50000000      -0.50000000      -0.50000000      -0.50000000      -9.50000000      -9.50000000      -9.50000000      -9.50000000      -9.50000000      -2.50000000
         1.36777237       1.38812250       1.36567247       1.38628773       1.40850493       1.42888250       1.40693981       1.42759149       1.44921672       1.46946793       1.44820417       1.46873804       1.48959544       1.50955776       1.48915226       1.50940515       1.52931275       1.54881785       1.52945439       1.54925725
         1.56803026       1.58690713       1.56877077       1.58795197       1.64978770       1.66700020       1.65098269       1.66851116       1.68367050       1.78796184       1.68549912       1.78961518       1.80194542       1.85272432       1.80391349       1.85482940       1.86351880       1.87346352       1.86594352       1.87621001
         1.88253947       1.89072814       1.88561129       1.89413059       1.89801110       1.90436953       1.90175144       1.90845730       1.90978362       1.91423192       1.91423100       1.91905414       1.91769054       1.92013227       1.92290635       1.92576453       1.92152546       1.92183275       1.92760182       1.92838651
         1.92100946       1.91900165       1.92808060       1.92663814       1.91574372       1.91115532       1.92400311       1.92010672       1.90513743       1.89756735       1.91486400       1.90816926       1.89513042       1.88341454       1.90660362       1.89602689       0.50000000       0.50000000       0.50000000       0.50000000
         1.85125694       1.82730414       1.86802290       1.84616364       1.79951792       1.76725906       1.82078881       1.79125944       1.72988750       1.68695010       1.75688262       1.71706199       1.63856654       1.58609153       1.67164747       1.62160133      -0.50000000      -0.50000000      -0.50000000      -0.50000000
         1.45172092       1.43929458       1.48880307       1.47601188       1.45114501       1.48404601       1.48778439       1.52051797       1.53066246       1.58328521       1.56625369       1.61701937       1.63628584       1.68657241       1.66737516       1.71461171       1.73295747       1.77535654       1.75788886       1.79734905
         1.81420048       1.85009614       1.83353693       1.86709612       1.88366005       1.91545004       1.89863669       1.92868984       1.94594537       1.97554801       1.95770161       1.98604114       2.00459152       2.03335140       2.01401265       2.04186681       2.06205454       2.09088688       2.06981005       2.09801180
         1.50000000       1.50000000       1.50000000       1.50000000       2.17952021       2.21009085       2.18540897       2.21575684       2.24127071       2.27308452       2.24679766       2.27855098       2.30553666       2.33861212       2.31101659       2.34417518       2.37227726       2.40648061       2.37798899       2.41240245
         2.44115367       2.47621183       2.44734293       2.48272151       2.51155529       2.54707020       2.51843393       2.55436168       2.58262984       2.61809593       2.59037312       2.62632488       2.65332005       2.68814510       2.66206323       2.69742560       2.72240687       2.75593553       2.73224213       2.76633727
         2.78855722       2.82009549       2.79953136       2.83164208       2.85037271       2.87921134       2.86248593       2.89187949       2.90643506       2.93186970       2.91964056       2.94558908       2.95534402       2.97669027       2.96954788       2.99134319       2.99574452       3.01234676       3.01080486       3.02776644
         3.02634090       3.03757447       3.04206494       3.05354040       3.04589825       3.05116578       3.06203527       3.06739357       3.05323288       3.05195721       3.06946004       3.06807918       3.04719820       3.03881738       3.06309451       3.05434812       3.02667972       3.01065634       3.04168104       3.02493476
         2.99062936       2.96649991       3.00395495       2.97859830      -6.50000000      -6.50000000      -6.50000000      -6.50000000      -6.50000000      -6.50000000      -6.50000000      -6.50000000      -6.50000000      -6.50000000      -6.50000000      -6.50000000      -6.50000000      -6.50000000      -6.50000000      -6.50000000
         0.50000000       0.50000000       0.50000000       0.50000000       0.50000000       0.50000000       0.50000000       0.50000000      -9.50000000      -9.50000000      -9.50000000      -9.50000000      -9.50000000      -9.50000000      -9.50000000       1.34272844       1.31935449       1.34029050       1.36352791       1.38440451
         1.36134214       1.38247559       1.40532257       1.42624487       1.40365531       1.42484409       1.44713277       1.46794635       1.44600330       1.46709299       1.48864468       1.50918592       1.48807215       1.50889886       1.52952764       1.54962696       1.52953061       1.54992444       1.56944083       1.58892620
         1.57003724       1.58982596       1.65212177       1.66996816       1.65320040       1.67136596       1.68727649       1.79125927       1.68899668       1.79288761       1.80587836       1.85695648       1.80783278       1.85909740       1.86839893       1.87899707       1.87087601       1.88181473       1.88873491       1.89759754
         1.89189931       1.90111679       1.90557065       1.91264021       1.90945520       1.91690318       1.91879194       1.92401080       1.92344955       1.92908288       1.92828034       1.93158203       1.93379097       1.93756021       1.93389443       1.93519221       1.94037502       1.94221705       1.93544504       1.93461624
         1.94306436       1.94289044       1.93266105       1.92952455       1.94166307       1.93934287       1.92513893       1.91941992       1.93588153       1.93121942       1.91575413       1.90958567       1.92871032       1.92393164      -0.50000000      -0.50000000      -0.50000000      -0.50000000       1.88660260       1.86732429
         1.90664936       1.89033609       1.84503354       1.81916953       1.87166866       1.85023807       1.78908958       1.75417658       1.82555618       1.79712243       1.71412370       1.66953022       1.76462640       1.72840819      -0.50000000      -0.50000000      -0.50000000      -0.50000000       1.54765307       1.53527356
         1.62751049       1.61642828       1.54575791       1.57555661       1.62417624       1.64788016       1.61693598       1.66244561       1.68115773       1.71797623       1.70727949       1.74923336       1.75455674       1.78922441       1.78775419       1.82308852       1.82157981       1.85181390       1.85577276       1.88638851
         1.88032099       1.90752275       1.91546646       1.94345988       1.93380325       1.95949310       1.97074628       1.99763794       1.98487195       2.01017599       2.02439337       2.05122723       2.03560545       2.06133058       2.07831783       2.10581269       2.08749596       2.11422340       1.50000000       1.50000000
         1.50000000       1.50000000       2.19181087       2.22189695       2.19868993       2.22848156       2.25276516       2.28442910       2.25914881       2.29069873       2.31688333       2.35010377       2.32312019       2.35638405       2.38404818       2.41865664       2.39044333       2.42523357       2.45385216       2.48954140
         2.46067328       2.49666463       2.52561553       2.56195130       2.53309420       2.56983398       2.59841218       2.63484968       2.60674256       2.64366640       2.67110481       2.70700956       2.68044131       2.71689396       2.74238855       2.77706060       2.75284355       2.78810342       2.81084034       2.84353978
         2.82248268       2.85578783       2.87496970       2.90494102       2.88782417       2.91839718       2.93326588       2.95975861       2.94731364       2.97438257       2.98423640       3.00651981       2.99941590       3.02222891       3.02643292       3.04380326       3.04264038       3.06047240       3.05846150       3.07024082
         3.07554994       3.08770007       3.07897603       3.08450248       3.09675088       3.10253008       3.08665471       3.08526507       3.10486331       3.10357214       3.08016216       3.07116958       3.09847192       3.08936945       3.05810506       3.04078069       3.07606094       3.05833053       3.01900488       2.99258747
         3.03595023       3.00868254       2.96134960       2.92514109       2.97628775       2.93853879      -6.50000000      -6.50000000      -6.50000000      -6.50000000      -6.50000000      -6.50000000      -6.50000000      -6.50000000      -6.50000000      -6.50000000      -6.50000000      -6.50000000      -6.50000000      -6.50000000
        -6.50000000      -6.50000000      -6.50000000      -6.50000000      -6.50000000      -6.50000000      -6.50000000      -6.50000000      -6.50000000      -6.50000000      -3.50000000      -3.50000000      -3.50000000      -3.50000000      -0.50000000      -0.50000000      -0.50000000      -0.50000000      -5.50000000      -5.50000000
        -5.50000000      -5.50000000      -1.50000000      -1.50000000      -1.50000000      -1.50000000      -1.50000000      -2.50000000      -2.50000000      -2.50000000      -2.50000000       1.35911893       1.38050408       1.35686239       1.37849337       1.40194042       1.42339085       1.40018059       1.42188712       1.44481678
         1.46617828       1.44357447       1.46520277       1.48743431       1.50854293       1.48673100       1.50811725       1.50000000       1.50000000       1.50000000       1.50000000       1.57055688       1.59064740       1.57099672       1.59138677       1.65421402       1.67269928       1.65515810       1.67396280       1.69065366
         1.79449353       1.69224132       1.79607023       1.80976925       1.86124371       1.81168013       1.86338672       1.87336535       1.88465257       1.87585727       1.88749981       1.89509291       1.90467550       1.89830371       1.90826028       1.91339078       1.92123021       1.91736247       1.92560461       1.92818588
         1.93425015       1.93298216       1.93949138       1.93941524       1.94367275       1.94512902       1.94989202       1.94701325       1.94942569       1.95377720       1.95678100       1.95089699       1.95141137       1.95889928       1.96012715       1.95094985       1.94948952       1.96045900       1.95988857       1.94700288
         1.94345685       1.95840934       1.95601507       1.94218081       1.93888426       1.95601658       1.95425139       0.50000000       0.50000000       0.50000000       0.50000000       1.92774971       1.91464531       1.94945379       1.93963984       1.89994662       1.88345007       1.92902403       1.91763045       1.86490157