# File generated by Flopy version 3.9.1 on 04/13/2026 at 08:32:31.
BEGIN options
  BUDGET  FILEOUT  quadtree_caseA.cbc
  HEAD  FILEOUT  quadtree_caseA.hds
END options

BEGIN period  1
  SAVE  head  last
  SAVE  budget  last
  PRINT  budget  last
END period  1

