# File generated by Flopy version 3.9.1 on 04/13/2026 at 08:32:28.
BEGIN options
  FIXED_CELL
  PRINT_FLOWS
  SAVE_FLOWS
END options

BEGIN dimensions
  MAXBOUND  90590
END dimensions

BEGIN period  1
  1 5.71405178E-09
  2 5.72968277E-09
  3 7.51405747E-09
  4 7.56845505E-09
  5 7.51457136E-09
  6 7.44032784E-09
  7 7.44037912E-09
  8 7.38337491E-09
  9 7.40435238E-09
  10 7.38731502E-09
  11 7.34526763E-09
  12 7.32722814E-09
  13 7.38971069E-09
  14 7.41143507E-09
  15 7.32980302E-09
  16 7.35287472E-09
  17 7.45179515E-09
  18 7.50956293E-09
  19 7.39567369E-09
  20 7.45684057E-09
  21 7.58306497E-09
  22 7.67029627E-09
  23 7.53452961E-09
  24 7.62653910E-09
  25 7.76904461E-09
  26 7.73045292E-09
  27 7.84377783E-09
  28 8.01287933E-09
  29 8.14571096E-09
  30 8.28130483E-09
  31 9.39080974E-09
  32 7.64883073E-09
  33 7.47222900E-09
  34 7.53702841E-09
  35 7.43869138E-09
  36 7.39406214E-09
  37 7.33392332E-09
  38 7.35665415E-09
  39 7.29344908E-09
  40 7.29368903E-09
  41 7.27464801E-09
  42 7.25112711E-09
  43 7.23110040E-09
  44 7.27740194E-09
  45 7.30181942E-09
  46 7.23402867E-09
  47 7.25976629E-09
  48 7.34704987E-09
  49 7.41159525E-09
  50 7.30737819E-09
  51 7.37522189E-09
  52 7.49342863E-09
  53 7.59014309E-09
  54 7.46108277E-09
  55 7.56234292E-09
  56 7.69911177E-09
  57 7.81764130E-09
  58 7.67616100E-09
  59 7.79964270E-09
  60 7.98978643E-09
  61 8.12779870E-09
  62 7.97503149E-09
  63 8.11785506E-09
  64 8.26827347E-09
  65 8.40916182E-09
  66 8.26280733E-09
  67 8.40776574E-09
  68 8.54873228E-09
  69 8.68556677E-09
  70 8.55095734E-09
  71 8.69094896E-09
  72 8.81854086E-09
  73 8.94679453E-09
  74 8.82662179E-09
  75 8.95713627E-09
  76 9.06969785E-09
  77 9.18681546E-09
  78 9.08189276E-09
  79 9.20049184E-09
  80 9.29787216E-09
  81 9.40272146E-09
  82 9.31269676E-09
  83 9.41839950E-09
  84 9.50131760E-09
  85 9.57649287E-09
  86 9.50087086E-09
  87 9.59341995E-09
  88 9.66257447E-09
  89 9.74267895E-09
  90 9.67967436E-09
  91 9.75978605E-09
  92 9.81695881E-09
  93 9.88558393E-09
  94 9.83393142E-09
  95 9.90230072E-09
  96 9.96509027E-09
  97 1.00224965E-08
  98 1.00747118E-08
  99 7.89574369E-09
  100 8.04322920E-09
  101 7.90032801E-09
  102 7.76125555E-09
  103 7.63428433E-09
  104 7.76178045E-09
  105 7.63062687E-09
  106 7.51793381E-09
  107 7.41537024E-09
  108 7.51014501E-09
  109 7.40370274E-09
  110 7.32964692E-09
  111 7.26350576E-09
  112 7.31456827E-09
  113 7.24569182E-09
  114 7.21917634E-09
  115 7.19819799E-09
  116 7.19948224E-09
  117 7.17760745E-09
  118 7.20129066E-09
  119 7.22829447E-09
  120 7.18084884E-09
  121 7.20903262E-09
  122 7.27818772E-09
  123 7.34918002E-09
  124 7.26105003E-09
  125 7.33496234E-09
  126 7.43886564E-09
  127 7.54441353E-09
  128 7.42817321E-09
  129 7.53764091E-09
  130 7.66276816E-09
  131 7.82675825E-09
  132 7.66010071E-09
  133 7.82754686E-09
  134 7.96958414E-09
  135 8.11673355E-09
  136 7.97438889E-09
  137 8.12525582E-09
  138 8.26564903E-09
  139 8.41414553E-09
  140 8.27750453E-09
  141 8.42890051E-09
  142 8.56041922E-09
  143 8.70303180E-09
  144 8.57762115E-09
  145 8.72223313E-09
  146 8.84087840E-09
  147 8.97314668E-09
  148 8.86165389E-09
  149 8.99510465E-09
  150 9.09927245E-09
  151 9.21889592E-09
  152 9.12206106E-09
  153 9.24220562E-09
  154 9.33182100E-09
  155 9.43797928E-09
  156 9.35538426E-09
  157 9.46156831E-09
  158 9.52094624E-09
  159 9.61352504E-09
  160 9.54461726E-09
  161 9.63686831E-09
  162 9.69964468E-09
  163 9.77948333E-09
  164 9.72252849E-09
  165 9.80180017E-09
  166 9.85323967E-09
  167 9.92112268E-09
  168 9.87490222E-09
  169 9.94206016E-09
  170 9.98334399E-09
  171 1.00401123E-08
  172 1.00034988E-08
  173 1.00594370E-08
  174 1.00916296E-08
  175 1.01380886E-08
  176 1.01100843E-08
  177 1.01556386E-08
  178 1.01962852E-08
  179 1.02321966E-08
  180 8.20898538E-09
  181 8.38782026E-09
  182 8.24016753E-09
  183 8.06171232E-09
  184 7.91571016E-09
  185 8.09100765E-09
  186 7.94272932E-09
  187 7.77376512E-09
  188 7.63903918E-09
  189 7.79818199E-09
  190 7.66062880E-09
  191 7.51496908E-09
  192 7.40511183E-09
  193 7.53364535E-09
  194 7.42095904E-09
  195 7.31294087E-09
  196 7.24160828E-09
  197 7.32623252E-09
  198 7.25280712E-09
  199 7.19369844E-09
  200 7.17100637E-09
  201 7.20343398E-09
  202 7.18003001E-09
  203 7.17437468E-09
  204 7.20361651E-09
  205 7.18349727E-09
  206 7.21363715E-09
  207 7.25753784E-09
  208 7.33405484E-09
  209 7.26917475E-09
  210 7.34788873E-09
  211 7.43038581E-09
  212 7.54328627E-09
  213 7.44682293E-09
  214 7.56254420E-09
  215 7.69684990E-09
  216 7.84018362E-09
  217 7.71954034E-09
  218 7.86560610E-09
  219 7.99033609E-09
  220 8.14418588E-09
  221 8.01822978E-09
  222 8.17420222E-09
  223 8.29902050E-09
  224 8.45257094E-09
  225 8.33076054E-09
  226 8.48561765E-09
  227 8.60300856E-09
  228 8.74891557E-09
  229 8.63695236E-09
  230 8.78337265E-09
  231 8.88923961E-09
  232 9.02324099E-09
  233 8.92386363E-09
  234 9.05772920E-09
  235 9.15043863E-09
  236 9.27055894E-09
  237 9.18453376E-09
  238 9.30404804E-09
  239 9.38349002E-09
  240 9.47350487E-09
  241 9.41620127E-09
  242 9.50551099E-09
  243 9.57193723E-09
  244 9.66348510E-09
  245 9.60292844E-09
  246 9.69338377E-09
  247 9.74834706E-09
  248 9.82674699E-09
  249 9.77709822E-09
  250 9.85431395E-09
  251 9.89892127E-09
  252 9.96510932E-09
  253 9.92528164E-09
  254 9.99025143E-09
  255 1.00255465E-08
  256 1.00804596E-08
  257 1.00494665E-08
  258 1.01031585E-08
  259 1.01300633E-08
  260 1.01745587E-08
  261 1.01515452E-08
  262 1.01948283E-08
  263 1.02141324E-08
  264 1.02489566E-08
  265 1.02331938E-08
  266 1.02668116E-08
  267 1.02791898E-08
  268 1.03049784E-08
  269 1.02958369E-08
  270 1.03204117E-08
  271 1.03406667E-08
  272 1.03567238E-08
  273 8.57438796E-09
  274 8.62558327E-09
  275 8.43001153E-09
  276 8.28181800E-09
  277 8.48201964E-09
  278 8.33430073E-09
  279 8.13171812E-09
  280 7.98211094E-09
  281 8.18430851E-09
  282 8.03443238E-09
  283 7.83588695E-09
  284 7.69638588E-09
  285 7.88757929E-09
  286 7.74713705E-09
  287 7.56729645E-09
  288 7.45249132E-09
  289 7.61687658E-09
  290 7.50078408E-09
  291 7.35579937E-09
  292 7.28073184E-09
  293 7.40282451E-09
  294 7.32665247E-09
  295 7.23019200E-09
  296 7.20620932E-09
  297 7.27530244E-09
  298 7.25090266E-09
  299 7.20974163E-09
  300 7.24058042E-09
  301 7.25446080E-09
  302 7.28576088E-09
  303 7.29737725E-09
  304 7.37778569E-09
  305 7.34339135E-09
  306 7.42489849E-09
  307 7.47869228E-09
  308 7.61883366E-09
  309 7.52703534E-09
  310 7.67036930E-09
  311 7.75676285E-09
  312 7.90462786E-09
  313 7.80929422E-09
  314 7.95789901E-09
  315 8.05875416E-09
  316 8.21586921E-09
  317 8.11243994E-09
  318 8.26960883E-09
  319 8.37318105E-09
  320 8.52840217E-09
  321 8.42660798E-09
  322 8.58116780E-09
  323 8.67973250E-09
  324 8.82581553E-09
  325 8.73152276E-09
  326 8.87636088E-09
  327 8.96568010E-09
  328 9.09867699E-09
  329 9.01475976E-09
  330 9.14611896E-09
  331 9.22441696E-09
  332 9.34271409E-09
  333 9.27009498E-09
  334 9.38654289E-09
  335 9.43846589E-09
  336 9.54162293E-09
  337 9.48055853E-09
  338 9.58180158E-09
  339 9.63757975E-09
  340 9.72654380E-09
  341 9.67584481E-09
  342 9.76291459E-09
  343 9.80875505E-09
  344 9.88447003E-09
  345 9.84326493E-09
  346 9.91716233E-09
  347 9.95394998E-09
  348 1.00174524E-08
  349 9.98487447E-09
  350 1.00466623E-08
  351 1.00752248E-08
  352 1.01275011E-08
  353 1.01027744E-08
  354 1.01534437E-08
  355 1.01744991E-08
  356 1.02164191E-08
  357 1.01988852E-08
  358 1.02392953E-08
  359 1.02534440E-08
  360 1.02857397E-08
  361 1.02748516E-08
  362 1.03057139E-08
  363 1.03134561E-08
  364 1.03367294E-08
  365 1.03320253E-08
  366 1.03539143E-08
  367 1.03556835E-08
  368 1.03704334E-08
  369 1.03714969E-08
  370 1.03848793E-08
  371 1.03810874E-08
  372 1.03877516E-08
  373 1.03941615E-08
  374 1.03994403E-08
  375 1.04008139E-08
  376 1.01712211E-08
  377 1.01666196E-08
  378 1.01496303E-08
  379 1.01126648E-08
  380 1.01599031E-08
  381 1.01251663E-08
  382 1.00992036E-08
  383 1.00827462E-08
  384 1.01134990E-08
  385 1.00988983E-08
  386 1.00630027E-08
  387 1.00396778E-08
  388 1.00810737E-08
  389 1.00597306E-08
  390 1.00124710E-08
  391 1.00345701E-08
  392 1.00052892E-08
  393 9.97158012E-09
  394 9.44141688E-09
  395 9.34614209E-09
  396 9.13221197E-09
  397 9.01361160E-09
  398 8.82163502E-09
  399 8.68571095E-09
  400 8.88759358E-09
  401 8.75472660E-09
  402 8.54398769E-09
  403 8.39783083E-09
  404 8.61591216E-09
  405 8.47245693E-09
  406 8.24907875E-09
  407 8.10009056E-09
  408 8.32614152E-09
  409 8.17927400E-09
  410 7.95376315E-09
  411 7.81350063E-09
  412 8.03471345E-09
  413 7.89584590E-09
  414 7.68312024E-09
  415 7.56668388E-09
  416 7.76649491E-09
  417 7.65075464E-09
  418 7.46825527E-09
  419 7.39159866E-09
  420 7.55274376E-09
  421 7.47629547E-09
  422 7.33985233E-09
  423 7.31522469E-09
  424 7.42461827E-09
  425 7.39997743E-09
  426 7.31876509E-09
  427 7.35025298E-09
  428 7.40345344E-09
  429 7.43482456E-09
  430 7.40822740E-09
  431 7.49015050E-09
  432 7.49259720E-09
  433 7.57417779E-09
  434 7.61355193E-09
  435 7.73889008E-09
  436 7.70044684E-09
  437 7.82479600E-09
  438 7.87769511E-09
  439 8.02586853E-09
  440 7.96227005E-09
  441 8.10875100E-09
  442 8.17963292E-09
  443 8.33567499E-09
  444 8.26046674E-09
  445 8.41413163E-09
  446 8.49121600E-09
  447 8.64402297E-09
  448 8.56701141E-09
  449 8.71692817E-09
  450 8.79237785E-09
  451 8.93502097E-09
  452 8.86222333E-09
  453 9.00169616E-09
  454 9.07108239E-09
  455 9.20001081E-09
  456 9.13453133E-09
  457 9.26022560E-09
  458 9.32150652E-09
  459 9.43546188E-09
  460 9.37851966E-09
  461 9.47498225E-09
  462 9.52714727E-09
  463 9.62596517E-09
  464 9.57810300E-09
  465 9.67398870E-09
  466 9.71764103E-09
  467 9.80241468E-09
  468 9.76284913E-09
  469 9.84493166E-09
  470 9.88054907E-09
  471 9.95231582E-09
  472 9.92050262E-09
  473 9.98983352E-09
  474 1.00179846E-08
  475 1.00778156E-08
  476 1.00531913E-08
  477 1.01108315E-08
  478 1.01320551E-08
  479 1.01809314E-08
  480 1.01629937E-08
  481 1.02098990E-08
  482 1.02246543E-08
  483 1.02634133E-08
  484 1.02517485E-08
  485 1.02887226E-08
  486 1.02973788E-08
  487 1.03267023E-08
  488 1.03209820E-08
  489 1.03486683E-08
  490 1.03515184E-08
  491 1.03719463E-08
  492 1.03719055E-08
  493 1.03908023E-08
  494 1.03880926E-08
  495 1.04000538E-08
  496 1.04054545E-08
  497 1.04159476E-08
  498 1.04079200E-08
  499 1.04117780E-08
  500 1.04223607E-08
  501 1.04247696E-08
  502 1.04117161E-08
  503 1.04078283E-08
  504 1.04232521E-08
  505 1.04178915E-08
  506 1.04002195E-08
  507 1.04087829E-08
  508 1.03960383E-08
  509 1.03797923E-08
  510 1.01494494E-08
  511 1.01545747E-08
  512 1.01597803E-08
  513 1.01674169E-08
  514 1.01712250E-08
  515 1.01649342E-08
  516 1.01698739E-08
  517 1.01744976E-08
  518 1.01770276E-08
  519 1.01744097E-08
  520 1.01783272E-08
  521 1.01785869E-08
  522 1.01789299E-08
  523 1.01813907E-08
  524 1.01833465E-08
  525 1.01777959E-08
  526 1.01749119E-08
  527 1.01839266E-08
  528 1.01828515E-08
  529 1.01699955E-08
  530 1.01376008E-08
  531 1.01798330E-08
  532 1.01498925E-08
  533 1.01278402E-08
  534 1.01152174E-08
  535 1.01421492E-08
  536 1.01316227E-08
  537 1.00994421E-08
  538 1.00802218E-08
  539 1.01180238E-08
  540 1.01010633E-08
  541 1.00572612E-08
  542 1.00302625E-08
  543 1.00804511E-08
  544 1.00558964E-08
  545 9.99892430E-09
  546 9.96294137E-09
  547 1.00271069E-08
  548 9.99378771E-09
  549 9.92200394E-09
  550 9.95564086E-09
  551 9.91236473E-09
  552 9.86365414E-09
  553 9.80920156E-09
  554 9.70237368E-09
  555 9.63190329E-09
  556 9.74869962E-09
  557 9.68184588E-09
  558 9.57968211E-09
  559 9.49557220E-09
  560 9.63356102E-09
  561 9.55349673E-09
  562 9.40398436E-09
  563 9.30475080E-09
  564 9.46616396E-09
  565 9.37139018E-09
  566 9.19780419E-09
  567 9.08321873E-09
  568 9.26909546E-09
  569 9.15933177E-09
  570 8.96126112E-09
  571 8.83245176E-09
  572 9.04233251E-09
  573 8.91857229E-09
  574 8.69763410E-09
  575 8.55804888E-09
  576 8.78883572E-09
  577 8.65429187E-09
  578 8.41540573E-09
  579 8.27194134E-09
  580 8.51656755E-09
  581 8.37780866E-09
  582 8.13044883E-09
  583 7.99425992E-09
  584 8.24071429E-09
  585 8.10852502E-09
  586 7.86716140E-09
  587 7.75323174E-09
  588 7.98494581E-09
  589 7.87398833E-09
  590 7.65659508E-09
  591 7.58110693E-09
  592 7.77972851E-09
  593 7.70599265E-09
  594 7.53000664E-09
  595 7.50558872E-09
  596 7.65600703E-09
  597 7.63206418E-09
  598 7.50895216E-09
  599 7.53987766E-09
  600 7.63526691E-09
  601 7.66540225E-09
  602 7.59685857E-09
  603 7.67727868E-09
  604 7.72097235E-09
  605 7.82756932E-09
  606 7.80599990E-09
  607 7.92817177E-09
  608 7.92999399E-09
  609 8.04875952E-09
  610 8.06303511E-09
  611 8.20650021E-09
  612 8.17969592E-09
  613 8.31879241E-09
  614 8.35484213E-09
  615 8.50483677E-09
  616 8.46241440E-09
  617 8.60743375E-09
  618 8.65382014E-09
  619 8.79968714E-09
  620 8.75128189E-09
  621 8.89194340E-09
  622 8.94084960E-09
  623 9.07617082E-09
  624 9.02790996E-09
  625 9.15811268E-09
  626 9.20489086E-09
  627 9.32655210E-09
  628 9.28184645E-09
  629 9.39869564E-09
  630 9.44093099E-09
  631 9.53372201E-09
  632 9.49457940E-09
  633 9.59695914E-09
  634 9.63324557E-09
  635 9.72570417E-09
  636 9.69234524E-09
  637 9.78090201E-09
  638 9.81131371E-09
  639 9.89032277E-09
  640 9.86284446E-09
  641 9.93841596E-09
  642 9.96299516E-09
  643 1.00295970E-08
  644 1.00078718E-08
  645 1.00714674E-08
  646 1.00903877E-08
  647 1.01456137E-08
  648 1.01294498E-08
  649 1.01820522E-08
  650 1.01955046E-08
  651 1.02402705E-08
  652 1.02294903E-08
  653 1.02719601E-08
  654 1.02801010E-08
  655 1.03151652E-08
  656 1.03096372E-08
  657 1.03426767E-08
  658 1.03456118E-08
  659 1.03715703E-08
  660 1.03712132E-08
  661 1.03953627E-08
  662 1.03931530E-08
  663 1.04104564E-08
  664 1.04152240E-08
  665 1.04308801E-08
  666 1.04235642E-08
  667 1.04325500E-08
  668 1.04424015E-08
  669 1.04498487E-08
  670 1.04374806E-08
  671 1.04384203E-08
  672 1.04532759E-08
  673 1.04527343E-08
  674 1.04354348E-08
  675 1.04285966E-08
  676 1.04482775E-08
  677 1.04399658E-08
  678 1.04179900E-08
  679 1.04037171E-08
  680 1.04278721E-08
  681 1.04120883E-08
  682 1.03859042E-08
  683 1.03647077E-08
  684 1.03927312E-08
  685 1.03699494E-08
  686 1.03403206E-08
  687 1.03439305E-08
  688 1.03149067E-08
  689 1.01118455E-08
  690 1.01156216E-08
  691 1.01328312E-08
  692 1.01199253E-08
  693 1.01248115E-08
  694 1.01379300E-08
  695 1.01434330E-08
  696 1.01302965E-08
  697 1.01363561E-08
  698 1.01492751E-08
  699 1.01553550E-08
  700 1.01429263E-08
  701 1.01499043E-08
  702 1.01615371E-08
  703 1.01676534E-08
  704 1.01571498E-08
  705 1.01644886E-08
  706 1.01735070E-08
  707 1.01788753E-08
  708 1.01717157E-08
  709 1.01785993E-08
  710 1.01835141E-08
  711 1.01871612E-08
  712 1.01848857E-08
  713 1.01903032E-08
  714 1.01895404E-08
  715 1.01903651E-08
  716 1.01945666E-08
  717 1.01973817E-08
  718 1.01893415E-08
  719 1.01619653E-08
  720 1.01984487E-08
  721 1.01974654E-08
  722 1.01563480E-08
  723 1.01480330E-08
  724 1.01703595E-08
  725 1.01643678E-08
  726 1.01367336E-08
  727 1.01221646E-08
  728 1.01554860E-08
  729 1.01434346E-08
  730 1.01040430E-08
  731 1.00820869E-08
  732 1.01279387E-08
  733 1.01087273E-08
  734 1.00560152E-08
  735 1.00255462E-08
  736 1.00855324E-08
  737 1.00580882E-08
  738 9.99039666E-09
  739 9.95028130E-09
  740 1.00261293E-08
  741 9.98938984E-09
  742 9.90491220E-09
  743 9.85399956E-09
  744 9.94760318E-09
  745 9.90050161E-09
  746 9.79725366E-09
  747 9.73438870E-09
  748 9.84781793E-09
  749 9.78928853E-09
  750 9.69046336E-09
  751 9.61492216E-09
  752 9.75011390E-09
  753 9.67954081E-09
  754 9.53238548E-09
  755 9.44268359E-09
  756 9.60230543E-09
  757 9.51824816E-09
  758 9.34573130E-09
  759 9.24156531E-09
  760 9.42728617E-09
  761 9.32944798E-09
  762 9.13039138E-09
  763 9.01264191E-09
  764 9.22491784E-09
  765 9.11409032E-09
  766 8.88904302E-09
  767 8.76068787E-09
  768 8.99763440E-09
  769 8.87656437E-09
  770 8.62911004E-09
  771 8.49634650E-09
  772 8.75231163E-09
  773 8.62678778E-09
  774 8.36497527E-09
  775 8.23810922E-09
  776 8.50242435E-09
  777 8.38217124E-09
  778 8.11932587E-09
  779 8.01251741E-09
  780 8.26943380E-09
  781 8.16793220E-09
  782 7.92165536E-09
  783 7.85048218E-09
  784 8.08147683E-09
  785 8.01367049E-09
  786 7.80216394E-09
  787 7.77895731E-09
  788 7.96757037E-09
  789 7.94536202E-09
  790 7.78195282E-09
  791 7.81094781E-09
  792 7.94810683E-09
  793 7.97561616E-09
  794 7.86447647E-09
  795 7.97331750E-09
  796 8.06200285E-09
  797 8.13697933E-09
  798 8.07182217E-09
  799 8.18594591E-09
  800 8.23048944E-09
  801 8.33876609E-09
  802 8.31163883E-09
  803 8.44502074E-09
  804 8.45793651E-09
  805 8.58430222E-09
  806 8.58259083E-09
  807 8.72135070E-09
  808 8.71453849E-09
  809 8.84580892E-09
  810 8.85885137E-09
  811 8.99318244E-09
  812 8.97580660E-09
  813 9.10273993E-09
  814 9.12292360E-09
  815 9.24707621E-09
  816 9.22528331E-09
  817 9.34250964E-09
  818 9.36498822E-09
  819 9.47628148E-09
  820 9.45381731E-09
  821 9.55886052E-09
  822 9.56695673E-09
  823 9.66438698E-09
  824 9.64370545E-09
  825 9.73564704E-09
  826 9.75512523E-09
  827 9.83933330E-09
  828 9.82126560E-09
  829 9.90071312E-09
  830 9.91721827E-09
  831 9.98901180E-09
  832 9.97418197E-09
  833 1.00418858E-08
  834 1.00549548E-08
  835 1.01152867E-08
  836 1.01040455E-08
  837 1.01608794E-08
  838 1.01702375E-08
  839 1.02200231E-08
  840 1.02125962E-08
  841 1.02593908E-08
  842 1.02648419E-08
  843 1.03048728E-08
  844 1.03014406E-08
  845 1.03389049E-08
  846 1.03402746E-08
  847 1.03711859E-08
  848 1.03719233E-08
  849 1.04006161E-08
  850 1.03977260E-08
  851 1.04199953E-08
  852 1.04250850E-08
  853 1.04454138E-08
  854 1.04380776E-08
  855 1.04520416E-08
  856 1.04616700E-08
  857 1.04739069E-08
  858 1.04619436E-08
  859 1.04678300E-08
  860 1.04821656E-08
  861 1.04864779E-08
  862 1.04697412E-08
  863 1.04677153E-08
  864 1.04868699E-08
  865 1.04833657E-08
  866 1.04617926E-08
  867 1.04520209E-08
  868 1.04759920E-08
  869 1.04647835E-08
  870 1.04384612E-08
  871 1.04211941E-08
  872 1.04497887E-08
  873 1.04310763E-08
  874 1.04003263E-08
  875 1.03759982E-08
  876 1.04087428E-08
  877 1.03829193E-08
  878 1.03483909E-08
  879 1.03177325E-08
  880 1.03537796E-08
  881 1.03215473E-08
  882 1.02843051E-08
  883 1.02484485E-08
  884 1.02865023E-08
  885 1.02489863E-08
  886 1.02105644E-08
  887 1.02094061E-08
  888 1.01682342E-08
  889 1.01271088E-08
  890 1.00568924E-08
  891 1.00646371E-08
  892 1.00706315E-08
  893 1.00751459E-08
  894 1.00784596E-08
  895 1.00872750E-08
  896 1.00898992E-08
  897 1.00808564E-08
  898 1.00826124E-08
  899 1.00923467E-08
  900 1.00946315E-08
  901 1.00842769E-08
  902 1.00858498E-08
  903 1.00969785E-08
  904 1.00995902E-08
  905 1.00875802E-08
  906 1.00896938E-08
  907 1.01026416E-08
  908 1.01062755E-08
  909 1.00923869E-08
  910 1.00958205E-08
  911 1.01105979E-08
  912 1.01156749E-08
  913 1.01001164E-08
  914 1.01053526E-08
  915 1.01215302E-08
  916 1.01281443E-08
  917 1.01115612E-08
  918 1.01187271E-08
  919 1.01354540E-08
  920 1.01433541E-08
  921 1.01267875E-08
  922 1.01356344E-08
  923 1.01516992E-08
  924 1.01603077E-08
  925 1.01451165E-08
  926 1.01550434E-08
  927 1.01689653E-08
  928 1.01774301E-08
  929 1.01651903E-08
  930 1.01753037E-08
  931 1.01854375E-08
  932 1.01927051E-08
  933 1.01851067E-08
  934 1.01943053E-08
  935 1.01989382E-08
  936 1.02038340E-08
  937 1.02025937E-08
  938 1.02096600E-08
  939 1.02070862E-08
  940 1.02083882E-08
  941 1.02151905E-08
  942 1.02188741E-08
  943 1.01841095E-08
  944 1.01805487E-08
  945 1.01975280E-08
  946 1.01965012E-08
  947 1.01741975E-08
  948 1.01647830E-08
  949 1.01927877E-08
  950 1.01861222E-08
  951 1.01520399E-08
  952 1.01357095E-08
  953 1.01762500E-08
  954 1.01629265E-08
  955 1.01155393E-08
  956 1.00912814E-08
  957 1.01459164E-08
  958 1.01249917E-08
  959 1.00626909E-08
  960 1.00295250E-08
  961 1.00999308E-08
  962 1.00705162E-08
  963 9.99154146E-09
  964 9.94849893E-09
  965 1.00365340E-08
  966 9.99777264E-09
  967 9.90015729E-09
  968 9.84628031E-09
  969 9.95402328E-09
  970 9.93021477E-09
  971 9.81221033E-09
  972 9.74701139E-09
  973 9.87642861E-09
  974 9.81696523E-09
  975 9.67553868E-09
  976 9.59764998E-09
  977 9.75166604E-09
  978 9.68041281E-09
  979 9.51327202E-09
  980 9.42243228E-09
  981 9.60314872E-09
  982 9.51990687E-09
  983 9.32529980E-09
  984 9.22223607E-09
  985 9.43084729E-09
  986 9.33630312E-09
  987 9.11385501E-09
  988 9.00109015E-09
  989 9.23683580E-09
  990 9.13329714E-09
  991 8.88526334E-09
  992 8.76814618E-09
  993 9.02689345E-09
  994 8.91924378E-09
  995 8.65200048E-09
  996 8.53958021E-09
  997 8.81241952E-09
  998 8.70894898E-09
  999 8.43407606E-09
  1000 8.33898563E-09
  1001 8.61176907E-09
  1002 8.52410789E-09
  1003 8.25790285E-09
  1004 8.19423596E-09
  1005 8.44929109E-09
  1006 8.39048044E-09
  1007 8.15088507E-09
  1008 8.12992937E-09
  1009 8.35037296E-09
  1010 8.33090781E-09
  1011 8.13238395E-09
  1012 8.15807787E-09
  1013 8.33303726E-09
  1014 8.40178651E-09
  1015 8.24698269E-09
  1016 8.31713700E-09
  1017 8.44745431E-09
  1018 8.51201477E-09
  1019 8.40463389E-09
  1020 8.50592451E-09
  1021 8.59256659E-09
  1022 8.68583221E-09
  1023 8.61736827E-09
  1024 8.73549725E-09
  1025 8.78845437E-09
  1026 8.89724056E-09
  1027 8.85720254E-09
  1028 8.97983973E-09
  1029 9.00933404E-09
  1030 9.12230901E-09
  1031 9.10126423E-09
  1032 9.21981538E-09
  1033 9.23420118E-09
  1034 9.34349089E-09
  1035 9.33426761E-09
  1036 9.44376560E-09
  1037 9.44905675E-09
  1038 9.55011488E-09
  1039 9.54775511E-09
  1040 9.63243653E-09
  1041 9.64615489E-09
  1042 9.72342104E-09
  1043 9.72436949E-09
  1044 9.81033468E-09
  1045 9.80844556E-09
  1046 9.88800602E-09
  1047 9.89040801E-09
  1048 9.96472467E-09
  1049 9.96216147E-09
  1050 1.00310239E-08
  1051 1.00334558E-08
  1052 1.00967912E-08
  1053 1.00947374E-08
  1054 1.01534625E-08
  1055 1.01549265E-08
  1056 1.02080544E-08
  1057 1.02073649E-08
  1058 1.02566075E-08
  1059 1.02563583E-08
  1060 1.03000083E-08
  1061 1.03013449E-08
  1062 1.03417194E-08
  1063 1.03391584E-08
  1064 1.03739452E-08
  1065 1.03778590E-08
  1066 1.04098756E-08
  1067 1.04044873E-08
  1068 1.04308848E-08
  1069 1.04378645E-08
  1070 1.04619045E-08
  1071 1.04532204E-08
  1072 1.04715598E-08
  1073 1.04820579E-08
  1074 1.04983715E-08
  1075 1.04859537E-08
  1076 1.04964386E-08
  1077 1.05108778E-08
  1078 1.05195965E-08
  1079 1.05030400E-08
  1080 1.05057745E-08
  1081 1.05245368E-08
  1082 1.05256994E-08
  1083 1.05046533E-08
  1084 1.04996862E-08
  1085 1.05230806E-08
  1086 1.05166753E-08
  1087 1.04908858E-08
  1088 1.04782734E-08
  1089 1.05064822E-08
  1090 1.04925086E-08
  1091 1.04618846E-08
  1092 1.04417759E-08
  1093 1.04747769E-08
  1094 1.04533316E-08
  1095 1.04180328E-08
  1096 1.03907768E-08
  1097 1.04282464E-08
  1098 1.03996329E-08
  1099 1.03601739E-08
  1100 1.03264419E-08
  1101 1.03676485E-08
  1102 1.03325049E-08
  1103 1.02898582E-08
  1104 1.02507648E-08
  1105 1.02944757E-08
  1106 1.02539026E-08
  1107 1.02095728E-08
  1108 1.01677916E-08
  1109 1.02111996E-08
  1110 1.01680349E-08
  1111 1.01241193E-08
  1112 1.00799258E-08
  1113 1.01227956E-08
  1114 1.00770352E-08
  1115 1.00358737E-08
  1116 1.00314354E-08
  1117 9.98671998E-09
  1118 9.94363559E-09
  1119 9.90292896E-09
  1120 9.70185640E-09
  1121 9.71904083E-09
  1122 9.73935106E-09
  1123 9.72462179E-09
  1124 9.74471918E-09
  1125 9.75726058E-09
  1126 1.00544693E-08
  1127 1.00437902E-08
  1128 1.00520285E-08
  1129 1.00614096E-08
  1130 1.00665251E-08
  1131 1.00580639E-08
  1132 1.00621950E-08
  1133 1.00701083E-08
  1134 1.00724618E-08
  1135 1.00647370E-08
  1136 1.00660180E-08
  1137 1.00738951E-08
  1138 1.00746781E-08
  1139 1.00663738E-08
  1140 1.00661428E-08
  1141 1.00754545E-08
  1142 1.00762150E-08
  1143 1.00658507E-08
  1144 1.00656929E-08
  1145 1.00772352E-08
  1146 1.00787659E-08
  1147 1.00659040E-08
  1148 1.00667620E-08
  1149 1.00810263E-08
  1150 1.00841979E-08
  1151 1.00685113E-08
  1152 1.00713555E-08
  1153 1.00884191E-08
  1154 1.00937811E-08
  1155 1.00754513E-08
  1156 1.00809038E-08
  1157 1.01003247E-08
  1158 1.01080391E-08
  1159 1.00877632E-08
  1160 1.00960233E-08
  1161 1.01168622E-08
  1162 1.01266818E-08
  1163 1.01056215E-08
  1164 1.01164412E-08
  1165 1.01373397E-08
  1166 1.01486355E-08
  1167 1.01283156E-08
  1168 1.01410329E-08
  1169 1.01603324E-08
  1170 1.01721634E-08
  1171 1.01543423E-08
  1172 1.01679621E-08
  1173 1.01838382E-08
  1174 1.01950492E-08
  1175 1.01815861E-08
  1176 1.01948921E-08
  1177 1.02054788E-08
  1178 1.02148047E-08
  1179 1.02075488E-08
  1180 1.02192224E-08
  1181 1.02227051E-08
  1182 1.02288640E-08
  1183 1.02295824E-08
  1184 1.02383071E-08
  1185 1.02105512E-08
  1186 1.02121562E-08
  1187 1.02231229E-08
  1188 1.02274521E-08
  1189 1.02111811E-08
  1190 1.02073687E-08
  1191 1.02293092E-08
  1192 1.02284455E-08
  1193 1.02004761E-08
  1194 1.01902741E-08
  1195 1.02246309E-08
  1196 1.02176525E-08
  1197 1.01765458E-08
  1198 1.01590857E-08
  1199 1.02073137E-08
  1200 1.01934326E-08
  1201 1.01376970E-08
  1202 1.01121907E-08
  1203 1.01758396E-08
  1204 1.01543761E-08
  1205 1.00823837E-08
  1206 1.00480974E-08
  1207 1.01288921E-08
  1208 1.00992452E-08
  1209 1.00091583E-08
  1210 9.99061342E-09
  1211 1.00652998E-08
  1212 1.00522151E-08
  1213 9.94242891E-09
  1214 9.88901332E-09
  1215 1.00098615E-08
  1216 9.96275338E-09
  1217 9.83024246E-09
  1218 9.76602798E-09
  1219 9.91080553E-09
  1220 9.85396452E-09
  1221 9.69633565E-09
  1222 9.62121034E-09
  1223 9.79222399E-09
  1224 9.72564588E-09
  1225 9.54080867E-09
  1226 9.45544012E-09
  1227 9.65438839E-09
  1228 9.57874149E-09
  1229 9.36561632E-09
  1230 9.27210701E-09
  1231 9.49916963E-09
  1232 9.41636065E-09
  1233 9.17599834E-09
  1234 9.07874632E-09
  1235 9.33127700E-09
  1236 9.24520329E-09
  1237 8.98221415E-09
  1238 8.88867849E-09
  1239 9.15977995E-09
  1240 9.07701021E-09
  1241 8.80078805E-09
  1242 8.72145942E-09
  1243 8.99922541E-09
  1244 8.92899498E-09
  1245 8.65370335E-09
  1246 8.60038808E-09
  1247 8.86897466E-09
  1248 8.82169860E-09
  1249 8.56396574E-09
  1250 8.54620450E-09
  1251 8.78933767E-09
  1252 8.77346215E-09
  1253 8.54797854E-09
  1254 8.62008524E-09
  1255 8.77485485E-09
  1256 8.84971802E-09
  1257 8.66125167E-09
  1258 8.71953902E-09
  1259 8.88596669E-09
  1260 8.93741144E-09
  1261 8.79232722E-09
  1262 8.87665759E-09
  1263 9.00175145E-09
  1264 9.07638735E-09
  1265 8.96950168E-09
  1266 9.06798203E-09
  1267 9.15865795E-09
  1268 9.24603396E-09
  1269 9.16952555E-09
  1270 9.27194821E-09
  1271 9.33625230E-09
  1272 9.42738952E-09
  1273 9.37348103E-09
  1274 9.47275367E-09
  1275 9.51788406E-09
  1276 9.60652132E-09
  1277 9.56875189E-09
  1278 9.66076241E-09
  1279 9.69239624E-09
  1280 9.77486500E-09
  1281 9.74831529E-09
  1282 9.81769276E-09
  1283 9.84031473E-09
  1284 9.91460249E-09
  1285 9.89539234E-09
  1286 9.96818564E-09
  1287 9.98464066E-09
  1288 1.00503749E-08
  1289 1.00361088E-08
  1290 1.00992450E-08
  1291 1.01118133E-08
  1292 1.01690056E-08
  1293 1.01577060E-08
  1294 1.02116185E-08
  1295 1.02220271E-08
  1296 1.02709669E-08
  1297 1.02611145E-08
  1298 1.03063234E-08
  1299 1.03159194E-08
  1300 1.03569783E-08
  1301 1.03473678E-08
  1302 1.03843601E-08
  1303 1.03942317E-08
  1304 1.04277596E-08
  1305 1.04173996E-08
  1306 1.04465719E-08
  1307 1.04576315E-08
  1308 1.04839052E-08
  1309 1.04719478E-08
  1310 1.04935833E-08
  1311 1.05066257E-08
  1312 1.05258252E-08
  1313 1.05115194E-08
  1314 1.05257831E-08
  1315 1.05415230E-08
  1316 1.05537257E-08
  1317 1.05363885E-08
  1318 1.05433376E-08
  1319 1.05624283E-08
  1320 1.05676152E-08
  1321 1.05466228E-08
  1322 1.05462294E-08
  1323 1.05692621E-08
  1324 1.05673381E-08
  1325 1.05421379E-08
  1326 1.05343288E-08
  1327 1.05618085E-08
  1328 1.05526391E-08
  1329 1.05227862E-08
  1330 1.05075038E-08
  1331 1.05397996E-08
  1332 1.05232701E-08
  1333 1.04884907E-08
  1334 1.04657787E-08
  1335 1.05030465E-08
  1336 1.04791479E-08
  1337 1.04394300E-08
  1338 1.04095457E-08
  1339 1.04516250E-08
  1340 1.04205679E-08
  1341 1.03762743E-08
  1342 1.03398206E-08
  1343 1.03861160E-08
  1344 1.03484665E-08
  1345 1.03004536E-08
  1346 1.02585135E-08
  1347 1.03078833E-08
  1348 1.02647037E-08
  1349 1.02155143E-08
  1350 1.01699889E-08
  1351 1.02206140E-08
  1352 1.01737933E-08
  1353 1.01233035E-08
  1354 1.00760962E-08
  1355 1.01257996E-08
  1356 1.00772825E-08
  1357 1.00290657E-08
  1358 9.98295668E-09
  1359 1.00289558E-08
  1360 9.98158221E-09
  1361 9.93853879E-09
  1362 9.89658322E-09
  1363 9.93595237E-09
  1364 9.89285946E-09
  1365 9.85783589E-09
  1366 9.82299033E-09
  1367 9.85307172E-09
  1368 9.81730369E-09
  1369 9.79266160E-09
  1370 9.78618893E-09
  1371 9.76025605E-09
  1372 9.73991023E-09
  1373 9.72542123E-09
  1374 9.71691910E-09
  1375 9.71439719E-09
  1376 9.70782019E-09
  1377 9.68861247E-09
  1378 9.71408246E-09
  1379 9.73042921E-09
  1380 9.75024695E-09
  1381 9.73646881E-09
  1382 9.75593623E-09
  1383 1.00422444E-08
  1384 1.00495804E-08
  1385 1.00408068E-08
  1386 1.00471399E-08
  1387 1.00546068E-08
  1388 1.00576437E-08
  1389 1.00510500E-08
  1390 1.00528798E-08
  1391 1.00590305E-08
  1392 1.00591216E-08
  1393 1.00529935E-08
  1394 1.00517733E-08
  1395 1.00582812E-08
  1396 1.00568780E-08
  1397 1.00496139E-08
  1398 1.00469158E-08
  1399 1.00554439E-08
  1400 1.00542566E-08
  1401 1.00442212E-08
  1402 1.00418888E-08
  1403 1.00535547E-08
  1404 1.00536459E-08