# File generated by Flopy version 3.9.1 on 02/09/2026 at 22:28:46.
BEGIN options
END options

BEGIN timing
  TDIS6  voronoi_caseB.tdis
END timing

BEGIN models
  gwf6  voronoi_caseB.nam  voronoi_caseB
END models

BEGIN exchanges
END exchanges

BEGIN solutiongroup  1
  ims6  voronoi_caseB.ims  voronoi_caseB
END solutiongroup  1

