# File generated by Flopy version 3.9.1 on 02/09/2026 at 22:28:51.
BEGIN options
  BUDGET  FILEOUT  voronoi_caseB.cbc
  HEAD  FILEOUT  voronoi_caseB.hds
END options

BEGIN period  1
  SAVE  HEAD  LAST
  SAVE  BUDGET  LAST
  PRINT  BUDGET  LAST
END period  1

