# File generated by Flopy version 3.9.1 on 02/09/2026 at 22:28:46.
BEGIN options
  SAVE_FLOWS
  NEWTON  UNDER_RELAXATION
END options

BEGIN packages
  DISV6  voronoi_caseB.disv  disv
  IC6  voronoi_caseB.ic  ic
  CHD6  voronoi_caseB.chd  chd
  NPF6  voronoi_caseB.npf  npf
  WEL6  voronoi_caseB.wel  well_package
  RCH6  voronoi_caseB.rch  rch
  EVT6  voronoi_caseB.evt  evt
  OC6  voronoi_caseB.oc  oc
END packages

