# File generated by Flopy version 3.9.1 on 02/19/2026 at 12:56:32.
BEGIN options
END options

BEGIN griddata
  strt
    INTERNAL  FACTOR  1.0
        -6.50000000      -6.50000000      -6.50000000      -6.50000000      -6.50000000      -6.50000000      -6.50000000      -6.50000000      -6.50000000      -0.50000000      -0.50000000      -0.50000000      -0.50000000      -0.50000000      -0.50000000      -0.50000000      -0.50000000      -0.50000000      -0.50000000      -0.50000000
        -0.50000000      -6.50000000      -6.50000000      -6.50000000      -6.50000000      -6.50000000      -6.50000000      -6.50000000      -6.50000000      -6.50000000      -6.50000000      -6.50000000      -6.50000000      -6.50000000      -6.50000000      -6.50000000      -6.50000000      -6.50000000      -6.50000000      -6.50000000
        -6.50000000      -6.50000000      -6.50000000      -6.50000000      -9.50000000      -9.50000000      -9.50000000      -9.50000000      -6.50000000      -6.50000000      -6.50000000      -8.50000000      -8.50000000      -8.50000000      -8.50000000      -8.50000000      -8.50000000      -8.50000000      -8.50000000      -8.50000000
        -8.50000000      -8.50000000      -8.50000000      -8.50000000      -6.50000000      -6.50000000      -6.50000000      -6.50000000      -6.50000000      -6.50000000      -6.50000000      -6.50000000      -6.50000000      -6.50000000      -6.50000000      -6.50000000      -6.50000000      -6.50000000      -6.50000000      -6.50000000
         0.50000000       0.50000000       0.50000000       0.50000000       0.50000000       0.50000000       0.50000000       0.50000000       0.50000000       0.50000000       0.50000000       0.50000000       0.50000000       0.50000000       0.50000000       0.50000000       0.50000000       0.50000000       0.50000000       0.50000000
         0.50000000       0.50000000       0.50000000       0.50000000       0.50000000       0.50000000       0.50000000       0.50000000       0.50000000       0.50000000       0.50000000       0.50000000      -7.50000000      -7.50000000      -7.50000000      -7.50000000      -7.50000000      -7.50000000      -7.50000000      -7.50000000
        -7.50000000      -7.50000000      -7.50000000      -7.50000000      -7.50000000      -7.50000000      -7.50000000      -7.50000000      -0.50000000      -0.50000000      -0.50000000      -0.50000000      -0.50000000      -0.50000000      -0.50000000      -0.50000000      -0.50000000      -0.50000000      -0.50000000      -0.50000000
        -0.50000000      -0.50000000      -0.50000000      -0.50000000       2.43373025       2.47248325       2.43751474       2.47703698       2.51086788       2.54865701       2.51619470       2.55474975       2.44170439       2.48199417       2.44631433       2.48736902       2.52192660       2.56125200       2.52807716       2.56817703
         0.50000000       0.50000000       0.50000000       0.50000000       0.50000000       0.50000000       0.50000000       0.50000000       0.50000000       0.50000000       0.50000000       0.50000000       0.50000000       0.50000000       0.50000000       0.50000000      -0.50000000      -0.50000000      -0.50000000      -0.50000000
        -0.50000000      -0.50000000      -0.50000000      -0.50000000      -0.50000000      -0.50000000      -0.50000000      -0.50000000      -0.50000000      -0.50000000      -9.50000000      -9.50000000      -9.50000000      -9.50000000      -9.50000000      -9.50000000      -2.50000000      -2.50000000      -2.50000000      -2.50000000
        -2.50000000      -2.50000000      -2.50000000      -2.50000000      -2.50000000      -2.50000000      -2.50000000      -2.50000000      -2.50000000      -2.50000000      -9.50000000      -9.50000000      -9.50000000      -6.50000000      -6.50000000      -6.50000000      -6.50000000      -6.50000000      -6.50000000      -6.50000000
        -6.50000000      -6.50000000      -6.50000000      -6.50000000      -6.50000000      -6.50000000      -6.50000000      -6.50000000       1.60405600       1.63047816       1.58958047       1.61820429       1.65927498       1.68973192       1.64915238       1.68159036       1.57638855       1.60742985       1.56494970       1.59861778
         1.64069066       1.67520163       1.63432526       1.67095586       1.72126784       1.75345464       1.71486537       1.74852148       1.78601184       1.81878586       1.78228323       1.81602284       1.71023969       1.74533279       1.70772562       1.74416606       1.79744019       1.85172305       1.88484259       1.84972317
         1.88344332       1.93451909       1.84918401       1.88338853       1.85024384       1.88478534       1.93545022       1.50000000       1.50000000       1.50000000       1.50000000       1.50000000       1.50000000       1.50000000       1.50000000       1.50000000       1.50000000       1.50000000       1.50000000       1.50000000
         1.50000000       1.50000000       1.50000000       1.50000000       1.50000000       1.50000000       1.50000000       1.50000000       1.50000000       1.50000000       1.50000000       1.50000000       1.50000000      -0.50000000      -0.50000000      -0.50000000      -0.50000000      -0.50000000      -0.50000000      -0.50000000
        -0.50000000      -0.50000000      -0.50000000      -0.50000000      -0.50000000      -0.50000000      -0.50000000      -0.50000000      -0.50000000      -8.50000000      -8.50000000      -8.50000000      -8.50000000      -8.50000000      -8.50000000      -8.50000000      -8.50000000      -8.50000000      -8.50000000      -8.50000000
        -8.50000000      -8.50000000      -8.50000000      -8.50000000      -8.50000000      -6.50000000      -6.50000000      -6.50000000      -6.50000000      -6.50000000      -6.50000000      -6.50000000      -6.50000000      -6.50000000      -6.50000000      -6.50000000      -6.50000000      -6.50000000      -6.50000000      -6.50000000
        -6.50000000      -6.50000000      -6.50000000      -6.50000000      -6.50000000      -6.50000000      -6.50000000      -6.50000000      -6.50000000      -6.50000000      -6.50000000      -6.50000000      -6.50000000      -6.50000000      -6.50000000      -6.50000000      -6.50000000      -6.50000000      -6.50000000      -6.50000000
        -6.50000000      -6.50000000      -6.50000000      -6.50000000      -6.50000000      -6.50000000      -6.50000000      -6.50000000      -6.50000000      -6.50000000      -6.50000000      -6.50000000      -6.50000000       0.50000000       0.50000000       0.50000000       0.50000000       0.50000000       0.50000000       0.50000000
         0.50000000       0.50000000       0.50000000       0.50000000       0.50000000       0.50000000      -9.50000000      -9.50000000      -9.50000000      -9.50000000      -2.50000000      -2.50000000      -2.50000000      -2.50000000      -2.50000000      -2.50000000      -2.50000000      -2.50000000      -2.50000000      -2.50000000
        -2.50000000      -2.50000000      -2.50000000       1.86900861       1.86896424       1.87379542       1.87201422       1.87351032       1.87712746       1.87894438       1.87361723       1.87881735       1.87845798       1.88406171       1.88251586       1.88469926       1.88816612       1.89076108       1.87347431       1.87187673
         1.87922491       1.87794044       1.86867920       1.86383235       1.87505273       1.87051148       1.88534871       1.88443778       1.89183127       1.89135386       1.88193003       1.87777627       1.88929598       1.88561180       1.85727363       1.84892527       1.86425167       1.85619076       1.83869236       1.82646174
         1.84622587       1.83423117       1.87191154       1.86425167       1.88023925       1.87309615       1.85386316       1.81231385       1.79937916       1.82020440       1.80728212       1.77994978       1.75795545       1.78783665       1.76565051       1.82937409       1.81671189       1.83982243       1.82770062       1.79752022
         1.77545718       1.80906563       1.78749215      -0.50000000      -0.50000000      -0.50000000      -0.50000000      -0.50000000      -0.50000000      -0.50000000      -0.50000000      -0.50000000      -0.50000000      -0.50000000      -0.50000000      -0.50000000      -0.50000000       0.50000000       0.50000000       0.50000000
         0.50000000       0.50000000       0.50000000       0.50000000       0.50000000       0.50000000       0.50000000       0.50000000       0.50000000       0.50000000       0.50000000       0.50000000      -0.50000000      -0.50000000      -0.50000000      -0.50000000      -0.50000000      -0.50000000      -0.50000000      -0.50000000
        -0.50000000      -0.50000000      -0.50000000      -0.50000000      -0.50000000      -0.50000000      -0.50000000      -0.50000000       1.46069885       1.47391945       1.44598408       1.46016702       1.49493788       1.52278055       1.48311846       1.51369338       1.43464379       1.44969026       1.42747549       1.44343229
         1.48894313       1.55585358       1.59233631       1.54984162       1.58927855       1.64976260       1.57049634       1.63341027       1.67576808       1.64144454       1.68496751       1.72792030       1.80198617       1.71660584       1.75569444       1.72631299       1.76543959       1.79312766       1.82917481       1.80260484
         1.83820382       1.87250239       1.94148567       1.86418459       1.89852787       1.87267537       1.90645250       1.95296184       2.01111915       2.08323773       2.00103363       2.03602679       2.00745055       2.04207324       2.07183572       2.10864011       2.07759791       2.11421154       2.15912874       2.21684581
         2.25795867       2.22118106       2.26259836       2.16864518       2.22615332       2.26783155       2.23175781       2.27365494       0.50000000       0.50000000       0.50000000       0.50000000       0.50000000       0.50000000       0.50000000       0.50000000       0.50000000       0.50000000       2.47610761       2.50000000
         2.48348078       2.50000000       2.50000000       2.50000000       2.50000000       2.50000000       2.50000000       2.50000000       2.65267197       2.69452886       2.66316781       2.70582111       2.73475410       2.77298740       2.74681579       2.78577480       2.70197084       2.75940757       2.79911374       2.77253755
         2.81301429       2.80887969       2.84209974       2.82233280       2.85614310       2.87233985       2.89932040       2.88688345       2.91426072       2.83636246       2.87079153       2.85098118       2.88606061       2.90206421       2.92987390       2.91790149       2.94618396       2.92279327       2.94254424       2.93801423
         2.95791792       2.95839421       2.97019983       2.97378144       2.98545030       2.95394742       2.97404697       2.97062255       2.99096790       2.98997087       3.00155339       3.00700719       3.01856347       2.97785347       2.98128301       2.99280553       2.99576306       2.98045179       2.97535905       2.99427325
         2.98832101       3.00866387       3.01120568       3.02549431       3.02769014       3.00911519       3.00236147       3.02507263       3.01759373       1.50000000       1.50000000       1.50000000       1.50000000       1.50000000       1.50000000       1.50000000       1.50000000       1.50000000       1.50000000       1.50000000
         1.50000000       1.50000000       1.50000000       1.50000000       1.50000000      -9.50000000      -9.50000000      -9.50000000      -9.50000000      -9.50000000      -9.50000000      -9.50000000      -9.50000000      -9.50000000      -9.50000000      -9.50000000      -9.50000000      -9.50000000      -0.50000000      -0.50000000
        -0.50000000      -0.50000000      -0.50000000      -0.50000000      -0.50000000      -0.50000000      -0.50000000       1.45570122       1.48390997       1.53930244       1.51171899       1.53901486       1.45383670       1.48253194       1.45188168       1.48105935       1.51083511       1.53863075       1.50985383       1.53814766
         1.56547187       1.59090963       1.56568658       1.59162695       1.61551536       1.63919468       1.61673387       1.64091146       1.56580584       1.59225127       1.56582590       1.59277761       1.61786328       1.64254454       1.61889737       1.64408653       1.69165006       1.71217417       1.69370409       1.71472220
         1.78901007       1.80546482       1.79156170       1.80849097       1.69569739       1.71721892       1.69762133       1.71965455       1.79411228       1.81153049       1.79665081       1.81457117       1.84444381       1.85642320       1.84776679       1.86021097       1.86692448       1.87594187       1.87117307       1.88065040
         1.85961088       1.88299634       1.88347217       1.88951314       1.88864332       1.89515363       1.89892896       1.90047108       1.91209993       1.90251534       1.89999406       1.91794343       1.91799761       1.89106349       1.87513449       1.91212303       1.89995184       1.85301939       1.82024052       1.88074733
         1.85580895       1.78112357       1.72436019       1.68681217       1.74490596       1.70846012       1.82406382       1.76860276       1.63217092       1.53482060       1.69325093       1.59600061       1.45183669       1.42057751       1.49711912       1.44734351       1.43358562       1.49865456       1.46964843       1.50000000
         1.59320091       1.65490952       1.69881493       1.67448546       1.71767295       1.64981506       1.70060170       1.74166712       1.73322596       1.77057001       1.73993252       1.77845642       1.75762649       1.79478978       1.81481921       1.84953450       1.82975232       1.86311769       1.80872294       1.87228436
         1.88311682       1.91604581       1.89544783       1.92724489       1.94875306       1.98161930       1.95894953       1.99094486       1.93200395       1.97043567       2.00139604       1.98308806       2.01287152       1.50000000       1.50000000       1.50000000       1.50000000       1.50000000       1.50000000       1.50000000
         1.50000000       1.50000000       1.50000000       1.50000000       1.50000000       1.50000000       2.18097997       2.23798436       2.28006072       2.24481756       2.28703675       2.19596356       2.27712557       2.34943035       2.41425206       2.46106959       2.42233812       2.46972887       2.36528003       2.45938167
         2.53715473       2.63325736       2.55746314       2.65672776       2.72682595       2.81439329       2.75375807       2.84481527       2.89249527       2.95794830       2.92617325       2.99441814       3.00804841       3.04066780       3.04665543       3.08059686       3.05425464       3.04776926       3.09453401       3.08723266
         3.02093331       3.00262864       3.03818148       3.01892480       2.97924208       2.95083594       2.99431885       2.96438540       3.05779896       3.01142305       2.98014001       3.03076532       2.99835976      -6.50000000      -6.50000000      -6.50000000      -6.50000000      -6.50000000      -6.50000000      -6.50000000
        -6.50000000      -6.50000000      -6.50000000      -6.50000000      -6.50000000      -6.50000000      -6.50000000      -6.50000000      -6.50000000      -6.50000000      -6.50000000      -6.50000000      -6.50000000      -6.50000000      -6.50000000      -6.50000000      -6.50000000      -6.50000000      -6.50000000      -6.50000000
        -6.50000000      -6.50000000      -6.50000000      -6.50000000      -6.50000000      -0.50000000      -0.50000000      -0.50000000      -0.50000000      -0.50000000      -0.50000000      -0.50000000      -0.50000000      -0.50000000      -0.50000000      -0.50000000      -0.50000000      -0.50000000      -9.50000000      -9.50000000
        -9.50000000      -9.50000000      -9.50000000      -9.50000000      -9.50000000      -9.50000000      -9.50000000      -9.50000000      -2.50000000      -2.50000000      -2.50000000      -2.50000000      -2.50000000      -2.50000000       1.32986484       1.35982973       1.32600096       1.35637531       1.38988902       1.41993066
         1.38686095       1.41734482       1.32209945       1.35287088       1.31817082       1.34932528       1.38377116       1.41468643       1.38062685       1.41196101       1.44983830       1.47949290       1.44770928       1.47783374       1.52278368       1.45980377       1.52071305       1.57961430       1.63335622       1.57951773
         1.63528861       1.71191777       1.80994020       1.71576843       1.81533467       1.86697503       1.89243841       1.87435336       1.90201323       1.92623426       1.93439623       1.93743129       1.95153651       1.95782978       1.94525638       1.92689247       1.89296363       1.78807421       1.71913047       1.90167593
         1.88563763      -0.50000000      -0.50000000      -0.50000000      -0.50000000      -0.50000000      -0.50000000      -0.50000000      -0.50000000      -0.50000000      -0.50000000       1.60276421       1.67218787       1.84115609       1.79376144       1.80828366       1.88980358       1.88749936       1.74490970       1.77166193
         1.80371406       1.81445441       1.83998077       1.82447660       1.84165362       1.88955275       1.89542434       1.85950307       1.87790318       1.90441025       1.91587782       1.86196670       1.91309147       1.92163469       1.93647884       1.95740531       1.96111169       1.97914983       1.96410649       1.99675685
         2.02525076       2.01127254       2.03839901       1.99969655       2.02645469       2.05217345       2.04212143       2.06642976       2.05494156       2.08606186       2.06695442       2.09714493       2.14079602       2.07955896       2.10878995       2.09263917       2.12090271       2.16189691       2.21332747       2.29417319
         2.23273174       2.28723020       2.32978372       2.29714448       2.33972887       2.38310914       2.47897953       2.37453578       2.42133197       2.38465431       2.43175960       2.50037672       2.64346611       2.84737827       3.02010601       3.13254155       3.16476966       2.50000000       2.50000000       2.50000000
         2.50000000       2.50000000       2.50000000       2.50000000       2.97976612       2.93386829       3.00287213       2.95581207       2.88158856       2.82302473       2.90189473       2.84108266       3.02137960       2.92687337       2.86441268       2.95697811       2.89364412      -7.50000000      -7.50000000      -7.50000000
        -7.50000000      -7.50000000      -7.50000000      -7.50000000      -7.50000000      -7.50000000      -7.50000000      -7.50000000      -7.50000000      -7.50000000      -7.50000000      -7.50000000      -7.50000000      -6.50000000      -6.50000000      -6.50000000      -6.50000000      -6.50000000      -6.50000000      -6.50000000
        -6.50000000      -6.50000000      -6.50000000      -6.50000000      -6.50000000      -6.50000000      -6.50000000      -6.50000000      -6.50000000      -6.50000000      -6.50000000      -6.50000000      -6.50000000      -6.50000000      -6.50000000      -6.50000000      -6.50000000      -6.50000000      -6.50000000      -6.50000000
        -6.50000000      -6.50000000      -6.50000000      -6.50000000      -6.50000000      -6.50000000      -6.50000000      -6.50000000      -6.50000000      -6.50000000      -6.50000000      -6.50000000      -6.50000000      -6.50000000      -6.50000000      -6.50000000      -6.50000000      -6.50000000      -6.50000000      -6.50000000
        -6.50000000      -6.50000000      -6.50000000      -6.50000000      -6.50000000      -6.50000000      -6.50000000      -6.50000000      -6.50000000      -6.50000000      -6.50000000      -6.50000000      -6.50000000      -6.50000000      -6.50000000      -6.50000000      -1.50000000      -1.50000000      -1.50000000      -1.50000000
        -1.50000000      -1.50000000      -1.50000000      -1.50000000      -1.50000000      -1.50000000      -1.50000000      -1.50000000      -1.50000000      -1.50000000      -1.50000000      -2.50000000      -2.50000000      -2.50000000      -2.50000000      -2.50000000      -2.50000000      -2.50000000      -2.50000000      -2.50000000
        -2.50000000      -2.50000000      -2.50000000      -2.50000000      -2.50000000      -2.50000000      -2.50000000      -2.50000000      -2.50000000      -2.50000000      -2.50000000      -2.50000000      -2.50000000       0.50000000       0.50000000       0.50000000       0.50000000       0.50000000       0.50000000       0.50000000
         0.50000000       0.50000000       0.50000000       0.50000000       0.50000000       0.50000000       0.50000000       0.50000000       0.50000000       1.45551173       1.51823554       1.43591454       1.46822453       1.43336084       1.46606301       1.50024870       1.53185851       1.49849846       1.53053748       1.57895812
         1.62242496       1.65016870       1.62276143       1.65100828       1.56292763       1.59333413       1.56205246       1.59292015       1.62296260       1.65170601       1.62302388       1.65225551       1.71918314       1.82047747       1.70839765       1.73412473       1.70944663       1.73569770       1.82526310      -0.50000000
        -0.50000000      -0.50000000      -0.50000000      -0.50000000      -0.50000000      -0.50000000      -0.50000000      -0.50000000      -0.50000000      -0.50000000      -0.50000000      -0.50000000      -0.50000000      -0.50000000      -0.50000000      -0.50000000       1.96172007       1.96723919       1.97334299       1.97945389
         1.97164960       1.97500943       1.98451813       1.98860671       1.98164567       1.98854888       1.98987421       1.99756553       1.99446504       1.99947539       2.00432536       2.01024355       1.98446457       1.98693332       2.01164246       2.00999072       2.01235473       2.02396054       2.02758330       1.98688883
         1.99601693       2.02404641       2.03870715       1.50000000       1.50000000       1.50000000       1.50000000       1.50000000       1.50000000       1.50000000       2.00688708       2.03409441       2.06081060       2.07784085       2.09201684       2.11112079       2.13081892       0.50000000       2.03756471       1.99595382
         2.11090205       2.07956961       1.94872992       1.94542970       1.99856054       1.98932570       1.96782290       2.04757366       2.03253839       1.98074994       1.98562882       2.00095927       2.00961082       2.02251506       2.03419036       2.04859320       2.01814223       2.03716973       2.03761138       2.05484259
         2.07701335       2.07339756       2.10799626       2.12602467       2.18467975       2.15279905       2.20860937       2.25380064       2.30745409       2.35007149       2.31812268       2.36078101       2.27615847       2.32911456       2.37182711       2.34039524       2.38318017       2.39517290       2.44259066       2.40606574
         2.45380317       2.52344947       2.41730690       2.46537478       2.42887078       2.47728306       2.54805705       2.69818636       2.91762308       3.10737717       3.23598138       3.28275165       3.23584833       3.09123166       2.98219998       3.17883403       3.07883210       2.85732471       2.77625813       2.90074257
         2.81993455       2.68625647       2.58840129       2.72909880       2.62875577       2.94499535       2.76975680       2.48544315       2.38258365       2.52121463       2.41191549       2.28776754       2.21005237       2.31094183       2.23439980       2.55130582       2.33147436       2.15115305       2.07850844       2.20668495
         2.21383122       1.99875826       1.99773929       1.96613035       1.97938797       2.33576706       2.01497612       2.03573623       2.09685817       2.02736196       2.09710804       2.17563942       2.26534829       2.18501387       2.28316141       2.04194020       2.11849808       2.08777845       2.16898816       2.21467668
         2.31979739       2.27118349       2.37998162       2.35894660       2.45081677       2.38335370       2.47959069       2.53735191       2.61671836       2.56847767       2.64864569       2.42443797       2.52259010       2.48525226       2.58160422       2.61142734       2.69025354       2.66714396       2.74196443      -6.50000000
        -6.50000000      -6.50000000      -6.50000000      -6.50000000      -6.50000000      -6.50000000      -6.50000000      -6.50000000      -6.50000000      -6.50000000      -6.50000000      -6.50000000      -6.50000000      -6.50000000      -6.50000000       2.90489097       2.94491772       2.93128895       2.96980138       2.98060714
         3.01249577       3.00404268       3.03457067       2.96121312       2.99761828       2.99451292       3.02822468       3.02993778       3.05872414       3.05816116       3.08483923       3.04104681       3.06665746       3.06185674       3.08629856       3.08966752       3.11036797       3.10823208       3.12794221       3.08443642
         3.10745697       3.10868309       3.13004309       3.12810583       3.14665260       3.14921089       3.16643147      -2.50000000      -2.50000000      -2.50000000      -2.50000000      -0.50000000      -0.50000000      -0.50000000      -0.50000000      -0.50000000      -0.50000000      -0.50000000      -0.50000000      -0.50000000
        -0.50000000      -0.50000000      -0.50000000      -0.50000000      -0.50000000      -0.50000000      -0.50000000      -3.50000000      -3.50000000      -3.50000000      -3.50000000      -3.50000000      -3.50000000      -3.50000000      -3.50000000      -3.50000000      -3.50000000      -3.50000000      -3.50000000      -3.50000000
        -3.50000000      -3.50000000      -3.50000000       1.29853906       1.33133802       1.29470710       1.32776875       1.36438502       1.39756524       1.36110043       1.39458786       1.29093954       1.32423783       1.28725107       1.32075839       1.35782873       1.39159868       1.35458141       1.38860751       1.43075660
         1.46383182       1.42810906       1.46153644       1.49666071       1.52911252       1.49473913       1.52758548       1.44104532       1.49273790       1.52595876       1.49066172       1.52423528       1.57636901       1.62294117       1.65265085       1.62271082       1.65288654       1.55871448       1.59087823       1.55736626
         1.58992678       1.63761434       1.71034796       1.73711671       1.71109422       1.73837243       1.81698977       1.83976651       1.81874954       1.84207036       1.71167848       1.73945602       1.71209440       1.74035924       1.82036725       1.84422601       1.82183278       1.84622143      -1.50000000      -1.50000000
        -1.50000000      -1.50000000      -1.50000000      -1.50000000      -1.50000000      -1.50000000      -1.50000000      -1.50000000      -1.50000000      -1.50000000      -1.50000000       0.50000000       0.50000000       0.50000000       0.50000000       0.50000000       0.50000000       0.50000000       0.50000000       0.50000000
         0.50000000       0.50000000       0.50000000       0.50000000       2.00653254       2.02255530       2.02281649       2.03291043       2.04141930       2.04196671       2.05128492       2.03576550       2.03765138       2.04245494       2.05100435       2.05691165       2.04935358       2.05683038       2.06007111       2.06844285
         2.06397316       2.07091282       2.07652121       2.08443041       2.05761639       2.06882524       2.08882794       2.10424096       2.08955222       2.09105986       2.10259332       2.11264245       2.12423988       2.12824668       2.14669594       2.11768880       2.13717560       2.13881559       2.15728096       2.18702195
         2.17184773       2.21014923       2.28468008       2.10134890       2.29365880       2.20678334       2.13303925       2.10857450       2.10366316       2.13826174       2.17985531       2.23321417       2.20671767       2.25810931       2.27571952       2.31221447       2.28764309       2.32398951       2.35193194       2.39481165
         2.36369389       2.40669442       2.32340300       2.37565264       2.41880299       2.38778223       2.43111366       2.44073232       2.48950572       2.45286734       2.50202085       2.54087310       2.59450430       2.55389147       2.60814312       2.49603323       2.56719846       2.62208580       2.58077386       2.63631215
         2.68564997       2.80199583       2.67905659       2.73763306       2.69404057       2.75347535       2.79728140       2.85742397       2.81407618       2.87525874       2.91860539       3.03065457       2.95696150       3.07396245       3.20555731       3.35631096       3.42782578       3.41124455       3.30639342       3.11582956
         2.79870348       2.40766446       2.27628697       2.47311163       2.68382334       2.78866093       2.66134314       2.73586046       2.80364205       2.81678680       2.87443333       2.89146956       2.97563126       2.86228585       2.91318582       2.92442624       2.96801994       2.95759091       2.99655033       3.00627645
         3.04005748       3.04318758       3.09809532       3.06492031       3.11618062       3.14326237       3.18063608       3.15734528       3.19063088       3.21157475       3.23709243      -2.50000000      -2.50000000      -2.50000000      -2.50000000      -2.50000000      -2.50000000      -2.50000000      -2.50000000      -2.50000000
        -2.50000000      -2.50000000      -2.50000000      -2.50000000      -2.50000000      -2.50000000      -2.50000000      -2.50000000      -2.50000000      -2.50000000      -2.50000000      -2.50000000      -1.50000000      -1.50000000      -1.50000000      -1.50000000      -1.50000000      -1.50000000      -1.50000000      -1.50000000