# File generated by Flopy version 3.9.1 on 02/10/2026 at 20:25:42.
BEGIN options
  SAVE_FLOWS
END options

BEGIN packages
  disv6  voronoi_caseA.disv  disv
  ic6  voronoi_caseA.ic  ic
  chd6  voronoi_caseA.chd  chd
  npf6  voronoi_caseA.npf  npf
  wel6  voronoi_caseA.wel  well_package
  rch6  voronoi_caseA.rch  rch
  evt6  voronoi_caseA.evt  evt
  oc6  voronoi_caseA.oc  oc
END packages

