# File generated by Flopy version 3.9.1 on 02/10/2026 at 20:25:42.
BEGIN options
  FIXED_CELL
  PRINT_FLOWS
  SAVE_FLOWS
END options

BEGIN dimensions
  MAXBOUND  3044
END dimensions

BEGIN period  1
  1 1 1.29299411E-08
  1 2 1.29336542E-08
  1 3 1.29964383E-08
  1 4 1.32176826E-08
  1 5 1.35643839E-08
  1 6 1.37399690E-08
  1 7 1.39543382E-08
  1 8 1.41295755E-08
  1 9 1.42778122E-08
  1 10 1.43572101E-08
  1 11 1.42148211E-08
  1 12 1.39886374E-08
  1 13 1.35588842E-08
  1 14 1.34125172E-08
  1 15 1.33972306E-08
  1 16 1.33973322E-08
  1 17 1.33952279E-08
  1 18 1.33954493E-08
  1 19 1.33941519E-08
  1 20 1.33947735E-08
  1 21 1.33959693E-08
  1 22 1.33976472E-08
  1 23 1.33993276E-08
  1 24 1.33983777E-08
  1 25 1.33968387E-08
  1 26 1.33962386E-08
  1 27 1.33968107E-08
  1 28 1.33983772E-08
  1 29 1.33968870E-08
  1 30 1.34013885E-08
  1 31 1.35084288E-08
  1 32 1.40318037E-08
  1 33 1.42658170E-08
  1 34 1.43789399E-08
  1 35 1.74500820E-08
  1 36 1.73447562E-08
  1 37 1.76935844E-08
  1 38 1.76690517E-08
  1 39 1.76578150E-08
  1 40 1.76687952E-08
  1 41 1.76620418E-08
  1 42 1.76668284E-08
  1 43 1.78150308E-08
  1 44 1.78293669E-08
  1 45 1.77908131E-08
  1 46 1.77895643E-08
  1 47 1.78296776E-08
  1 48 1.78614477E-08
  1 49 1.78706578E-08
  1 50 1.76601516E-08
  1 51 1.77580987E-08
  1 52 1.78104435E-08
  1 53 1.78393616E-08
  1 54 1.78432129E-08
  1 55 1.78555483E-08
  1 56 1.78314826E-08
  1 57 1.78083876E-08
  1 58 1.78162359E-08
  1 59 1.78013435E-08
  1 60 1.78368547E-08
  1 61 1.76067787E-08
  1 62 1.76165619E-08
  1 63 1.75259026E-08
  1 64 1.74370298E-08
  1 65 1.74205180E-08
  1 66 1.74123320E-08
  1 67 1.73988364E-08
  1 68 1.73592840E-08
  1 69 1.73607152E-08
  1 70 1.73566425E-08
  1 71 1.73483489E-08
  1 72 1.73466075E-08
  1 73 1.73460457E-08
  1 74 1.73336634E-08
  1 75 1.73179733E-08
  1 76 1.72781604E-08
  1 77 1.71302667E-08
  1 78 1.71283021E-08
  1 79 1.71650754E-08
  1 80 1.71670332E-08
  1 81 1.71610280E-08
  1 82 1.71712067E-08
  1 83 1.71702975E-08
  1 84 1.71754317E-08
  1 85 1.71178689E-08
  1 86 1.71198985E-08
  1 87 1.71804937E-08
  1 88 1.71950241E-08
  1 89 1.71943742E-08
  1 90 1.71901522E-08
  1 91 1.71928924E-08
  1 92 1.71998307E-08
  1 93 1.72014683E-08
  1 94 1.72201867E-08
  1 95 1.72197637E-08
  1 96 1.72396080E-08
  1 97 1.71887150E-08
  1 98 1.72113869E-08
  1 99 1.72113258E-08
  1 100 1.72214975E-08
  1 101 1.72238360E-08
  1 102 1.72196469E-08
  1 103 1.72388708E-08
  1 104 1.72395222E-08
  1 105 1.72099686E-08
  1 106 1.72326881E-08
  1 107 1.72266710E-08
  1 108 1.72403565E-08
  1 109 1.72340227E-08
  1 110 1.72243380E-08
  1 111 1.72156439E-08
  1 112 1.72241430E-08
  1 113 1.72140717E-08
  1 114 1.72178126E-08
  1 115 1.71950458E-08
  1 116 1.71981546E-08
  1 117 1.71982895E-08
  1 118 1.72089783E-08
  1 119 1.72136924E-08
  1 120 1.72207171E-08
  1 121 1.72248334E-08
  1 122 1.72455044E-08
  1 123 1.72407342E-08
  1 124 1.72297195E-08
  1 125 1.72215196E-08
  1 126 1.71702438E-08
  1 127 1.71531208E-08
  1 128 1.71750354E-08
  1 129 1.71658016E-08
  1 130 1.73116110E-08
  1 131 1.72199031E-08
  1 132 1.72302226E-08
  1 133 1.72149893E-08
  1 134 1.72435278E-08
  1 135 1.71796839E-08
  1 136 1.70875191E-08
  1 137 1.70665767E-08
  1 138 1.70519447E-08
  1 139 1.69883030E-08
  1 140 1.69472099E-08
  1 141 1.68790115E-08
  1 142 1.68805788E-08
  1 143 1.67964620E-08
  1 144 1.67614154E-08
  1 145 1.68827183E-08
  1 146 1.68212493E-08
  1 147 1.68650254E-08
  1 148 1.68020788E-08
  1 149 1.67518239E-08
  1 150 1.66833919E-08
  1 151 1.66480018E-08
  1 152 1.65729706E-08
  1 153 1.64475951E-08
  1 154 1.63544666E-08
  1 155 1.61341656E-08
  1 156 1.62756753E-08
  1 157 1.62759269E-08
  1 158 1.63636398E-08
  1 159 1.63100577E-08
  1 160 1.61959897E-08
  1 161 1.61483363E-08
  1 162 1.60090858E-08
  1 163 1.60159267E-08
  1 164 1.58150090E-08
  1 165 1.58833380E-08
  1 166 1.59478789E-08
  1 167 1.59720415E-08
  1 168 1.58903737E-08
  1 169 1.58251597E-08
  1 170 1.56990268E-08
  1 171 1.57183758E-08
  1 172 1.56414884E-08
  1 173 1.57138134E-08
  1 174 1.57586860E-08
  1 175 1.55409162E-08
  1 176 1.55228709E-08
  1 177 1.55833893E-08
  1 178 1.56009801E-08
  1 179 1.56389434E-08
  1 180 1.55893611E-08
  1 181 1.55776841E-08
  1 182 1.56648833E-08
  1 183 1.57405255E-08
  1 184 1.61069462E-08
  1 185 1.60912039E-08
  1 186 1.62130698E-08
  1 187 1.64360452E-08
  1 188 1.64421088E-08
  1 189 1.65264951E-08
  1 190 1.65259585E-08
  1 191 1.68453700E-08
  1 192 1.63345001E-08
  1 193 1.63439765E-08
  1 194 1.64178325E-08
  1 195 1.64214960E-08
  1 196 1.64351677E-08
  1 197 1.64544133E-08
  1 198 1.63727727E-08
  1 199 1.62668676E-08
  1 200 1.62813730E-08
  1 201 1.62030936E-08
  1 202 1.62141160E-08
  1 203 1.61690695E-08
  1 204 1.61408879E-08
  1 205 1.82492077E-08
  1 206 1.83449709E-08
  1 207 1.94679337E-08
  1 208 2.01079670E-08
  1 209 2.06956966E-08
  1 210 2.07556906E-08
  1 211 2.08123200E-08
  1 212 2.07028242E-08
  1 213 2.06279325E-08
  1 214 2.05587452E-08
  1 215 2.05188903E-08
  1 216 2.05711821E-08
  1 217 2.02443691E-08
  1 218 1.96418261E-08
  1 219 1.98948751E-08
  1 220 1.94314450E-08
  1 221 1.94755856E-08
  1 222 1.95284873E-08
  1 223 1.95736693E-08
  1 224 1.96683568E-08
  1 225 1.96398630E-08
  1 226 1.94681128E-08
  1 227 1.94805455E-08
  1 228 1.93424697E-08
  1 229 1.88874968E-08
  1 230 1.84793728E-08
  1 231 1.81952564E-08
  1 232 1.79196436E-08
  1 233 1.77209842E-08
  1 234 1.78399581E-08
  1 235 1.64850137E-08
  1 236 1.59538693E-08
  1 237 1.58143434E-08
  1 238 1.53840793E-08
  1 239 1.53243735E-08
  1 240 1.53027749E-08
  1 241 1.51311544E-08
  1 242 1.49050028E-08
  1 243 1.50522294E-08
  1 244 1.50706101E-08
  1 245 1.42327712E-08
  1 246 1.43921209E-08
  1 247 1.42816025E-08
  1 248 1.42791096E-08
  1 249 1.42252817E-08
  1 250 1.42158212E-08
  1 251 1.42077685E-08
  1 252 1.42074704E-08
  1 253 1.42075943E-08
  1 254 1.41977268E-08
  1 255 1.41621054E-08
  1 256 1.41243819E-08
  1 257 1.37826098E-08
  1 258 1.37458258E-08
  1 259 1.33846449E-08
  1 260 1.32604089E-08
  1 261 1.31981271E-08
  1 262 1.31007774E-08
  1 263 1.29994039E-08
  1 264 1.29235299E-08
  1 265 1.28672052E-08
  1 266 1.26359257E-08
  1 267 1.25845039E-08
  1 268 1.24598935E-08
  1 269 1.22963499E-08
  1 270 1.18240041E-08
  1 271 1.16880079E-08
  1 272 1.14616725E-08
  1 273 1.13340596E-08
  1 274 1.07436895E-08
  1 275 1.05172033E-08
  1 276 1.04347558E-08
  1 277 1.01948801E-08
  1 278 1.00002437E-08
  1 279 9.96949951E-09
  1 280 9.96579612E-09
  1 281 9.96676522E-09
  1 282 9.96215679E-09
  1 283 9.96158648E-09
  1 284 9.95677612E-09
  1 285 9.95515157E-09
  1 286 9.95330725E-09
  1 287 9.94921808E-09
  1 288 9.94830588E-09
  1 289 9.94661050E-09
  1 290 9.94051033E-09
  1 291 9.96035866E-09
  1 292 9.96452440E-09
  1 293 9.91908342E-09
  1 294 9.90260021E-09
  1 295 9.89886611E-09
  1 296 9.90006268E-09
  1 297 9.89887234E-09
  1 298 9.89867372E-09
  1 299 9.95408519E-09
  1 300 1.01943295E-08
  1 301 1.05381944E-08
  1 302 1.11348978E-08
  1 303 1.15409220E-08
  1 304 1.17783583E-08
  1 305 1.18487568E-08
  1 306 1.18764950E-08
  1 307 1.19343978E-08
  1 308 1.19343624E-08
  1 309 1.19729499E-08
  1 310 1.21010985E-08
  1 311 1.21011412E-08
  1 312 1.20897249E-08
  1 313 1.20827956E-08
  1 314 1.20769547E-08
  1 315 1.20708228E-08
  1 316 1.20113596E-08
  1 317 1.19293701E-08
  1 318 1.19202846E-08
  1 319 1.19289333E-08
  1 320 1.18425000E-08
  1 321 1.15154851E-08
  1 322 1.14749766E-08
  1 323 1.12839498E-08
  1 324 1.11797991E-08
  1 325 1.07167069E-08
  1 326 1.05596367E-08
  1 327 1.00422006E-08
  1 328 1.00223412E-08
  1 329 9.84186934E-09
  1 330 9.82502746E-09
  1 331 9.80049785E-09
  1 332 9.80955248E-09
  1 333 9.79845851E-09
  1 334 9.74333849E-09
  1 335 9.73870520E-09
  1 336 9.78679523E-09
  1 337 9.72733372E-09
  1 338 9.72226001E-09
  1 339 9.57656090E-09
  1 340 9.32258239E-09
  1 341 9.10792330E-09
  1 342 9.10464471E-09
  1 343 9.14495711E-09
  1 344 9.10380901E-09
  1 345 9.10172844E-09
  1 346 9.41553072E-09
  1 347 9.52267239E-09
  1 348 9.80509066E-09
  1 349 9.88408636E-09
  1 350 9.91136624E-09
  1 351 9.96480995E-09
  1 352 9.99830371E-09
  1 353 1.00067478E-08
  1 354 9.98761061E-09
  1 355 9.99679894E-09
  1 356 1.00045659E-08
  1 357 1.00239349E-08
  1 358 1.00446551E-08
  1 359 1.00219794E-08
  1 360 1.00592984E-08
  1 361 1.00724146E-08
  1 362 1.00986892E-08
  1 363 1.00893330E-08
  1 364 1.01255605E-08
  1 365 1.01774289E-08
  1 366 1.01721504E-08
  1 367 1.01824242E-08
  1 368 1.01818400E-08
  1 369 1.01334700E-08
  1 370 1.01006446E-08
  1 371 1.00881477E-08
  1 372 1.00682244E-08
  1 373 9.10131979E-09
  1 374 9.12500091E-09
  1 375 9.41624473E-09
  1 376 9.41707017E-09
  1 377 9.42076818E-09
  1 378 9.41713585E-09
  1 379 9.42191645E-09
  1 380 9.81638649E-09
  1 381 1.01783955E-08
  1 382 1.03661124E-08
  1 383 1.14979577E-08
  1 384 1.17344955E-08
  1 385 1.22387707E-08
  1 386 1.20495537E-08
  1 387 1.17304817E-08
  1 388 8.47741860E-09
  1 389 8.31397187E-09
  1 390 8.31745843E-09
  1 391 7.91833010E-09
  1 392 7.47605666E-09
  1 393 7.34858755E-09
  1 394 7.36018655E-09
  1 395 7.35077002E-09
  1 396 7.36654349E-09
  1 397 8.98375144E-09
  1 398 9.54585952E-09
  1 399 1.01668813E-08
  1 400 1.09129627E-08
  1 401 1.17723371E-08
  1 402 1.18377492E-08
  1 403 1.18189047E-08
  1 404 1.18419304E-08
  1 405 1.18504342E-08
  1 406 1.19779355E-08
  1 407 1.18746089E-08
  1 408 1.18416682E-08
  1 409 1.19031962E-08
  1 410 1.20217176E-08
  1 411 1.27011563E-08
  1 412 1.29341882E-08
  1 413 1.29404044E-08
  1 414 1.29280093E-08
  1 415 1.30237929E-08
  1 416 1.30074478E-08
  1 417 1.30082956E-08
  1 418 1.28202060E-08
  1 419 1.22841230E-08
  1 420 1.15089345E-08
  1 421 1.15442506E-08
  1 422 1.14512814E-08
  1 423 1.09147025E-08
  1 424 1.05762666E-08
  1 425 9.82822892E-09
  1 426 7.96886264E-09
  1 427 7.65778970E-09
  1 428 7.33139879E-09
  1 429 7.33224998E-09
  1 430 7.32831311E-09
  1 431 7.34509112E-09
  1 432 7.36786705E-09
  1 433 7.41849575E-09
  1 434 7.43256974E-09
  1 435 7.41774971E-09
  1 436 7.44101701E-09
  1 437 7.43698190E-09
  1 438 7.48980072E-09
  1 439 7.68061168E-09
  1 440 8.02394485E-09
  1 441 8.48085403E-09
  1 442 8.81592329E-09
  1 443 8.83411895E-09
  1 444 8.85607016E-09
  1 445 8.89805695E-09
  1 446 8.91672039E-09
  1 447 8.87304571E-09
  1 448 8.89945902E-09
  1 449 9.47526383E-09
  1 450 9.65201612E-09
  1 451 9.83138522E-09
  1 452 1.00452413E-08
  1 453 1.02243834E-08
  1 454 1.03886642E-08
  1 455 1.07241675E-08
  1 456 1.07220648E-08
  1 457 1.06926360E-08
  1 458 1.06535378E-08
  1 459 1.06161391E-08
  1 460 1.06359589E-08
  1 461 1.06209158E-08
  1 462 1.06353846E-08
  1 463 1.05456444E-08
  1 464 1.05647532E-08
  1 465 1.04441833E-08
  1 466 1.07000696E-08
  1 467 1.14653282E-08
  1 468 1.19708950E-08
  1 469 1.23718639E-08
  1 470 1.29004833E-08
  1 471 1.29238239E-08
  1 472 1.29826845E-08
  1 473 1.30245382E-08
  1 474 1.30198581E-08
  1 475 1.30038679E-08
  1 476 1.30013833E-08
  1 477 1.30518920E-08
  1 478 1.32340497E-08
  1 479 1.32915490E-08
  1 480 1.32960979E-08
  1 481 1.33274795E-08
  1 482 1.33660206E-08
  1 483 1.33717717E-08
  1 484 1.33699373E-08
  1 485 1.33890272E-08
  1 486 1.33969973E-08
  1 487 1.34365832E-08
  1 488 1.38650072E-08
  1 489 1.38858479E-08
  1 490 1.38896745E-08
  1 491 1.38914579E-08
  1 492 1.38993830E-08
  1 493 1.39068598E-08
  1 494 1.39093123E-08
  1 495 1.39155298E-08
  1 496 1.39213994E-08
  1 497 1.39287760E-08
  1 498 1.39295148E-08
  1 499 1.39324281E-08
  1 500 1.39418957E-08
  1 501 1.39452929E-08
  1 502 1.39527925E-08
  1 503 1.39789725E-08
  1 504 1.39885968E-08
  1 505 1.39989115E-08
  1 506 1.40105670E-08
  1 507 1.40161471E-08
  1 508 1.40259197E-08
  1 509 1.40348250E-08
  1 510 1.40407232E-08
  1 511 1.40394541E-08
  1 512 1.40372576E-08
  1 513 1.40337683E-08
  1 514 1.40284618E-08
  1 515 1.40236990E-08
  1 516 1.40032122E-08
  1 517 1.39524581E-08
  1 518 1.39144920E-08
  1 519 1.39011330E-08
  1 520 1.38730547E-08
  1 521 1.38620118E-08
  1 522 1.38336811E-08
  1 523 1.38417822E-08
  1 524 1.38378574E-08
  1 525 1.38337771E-08
  1 526 1.38246307E-08
  1 527 1.38113250E-08
  1 528 1.37971530E-08
  1 529 1.37970298E-08
  1 530 1.38083999E-08
  1 531 1.37529737E-08
  1 532 1.37603913E-08
  1 533 1.37540471E-08
  1 534 1.37591684E-08
  1 535 1.37494517E-08
  1 536 1.37415342E-08
  1 537 1.37321735E-08
  1 538 1.37160582E-08
  1 539 1.37033335E-08
  1 540 1.36815795E-08
  1 541 1.36486794E-08
  1 542 1.36593654E-08
  1 543 1.36502323E-08
  1 544 1.36467320E-08
  1 545 1.36257395E-08
  1 546 1.36039924E-08
  1 547 1.36065868E-08
  1 548 1.35860892E-08
  1 549 1.35703820E-08
  1 550 1.35646005E-08
  1 551 1.35572838E-08
  1 552 1.35470688E-08
  1 553 1.35368355E-08
  1 554 1.34969016E-08
  1 555 1.34737803E-08
  1 556 1.34585451E-08
  1 557 1.34585749E-08
  1 558 1.34464156E-08
  1 559 1.34425014E-08
  1 560 1.34344570E-08
  1 561 1.34156097E-08
  1 562 1.33744542E-08
  1 563 1.33746912E-08
  1 564 1.33560677E-08
  1 565 1.33495728E-08
  1 566 1.33237954E-08
  1 567 1.32933920E-08
  1 568 1.32439943E-08
  1 569 1.32476407E-08
  1 570 1.32198103E-08
  1 571 1.31616101E-08
  1 572 1.31330269E-08
  1 573 1.31449564E-08
  1 574 1.31262895E-08
  1 575 1.31387628E-08
  1 576 1.31120925E-08
  1 577 1.30959258E-08
  1 578 1.30963664E-08
  1 579 1.30856255E-08
  1 580 1.30631879E-08
  1 581 1.30303815E-08
  1 582 1.30005817E-08
  1 583 1.29865744E-08
  1 584 1.29709717E-08
  1 585 1.29772643E-08
  1 586 1.29240922E-08
  1 587 1.29174676E-08
  1 588 1.28880493E-08
  1 589 1.28336302E-08
  1 590 1.28303766E-08
  1 591 1.28105627E-08
  1 592 1.27822303E-08
  1 593 1.27506263E-08
  1 594 1.27299464E-08
  1 595 1.26461903E-08
  1 596 1.26498035E-08
  1 597 1.26171655E-08
  1 598 1.25649313E-08
  1 599 1.25463614E-08
  1 600 1.24525350E-08
  1 601 1.24281565E-08
  1 602 1.23735225E-08
  1 603 1.23501793E-08
  1 604 1.23178751E-08
  1 605 1.22891791E-08
  1 606 1.22579147E-08
  1 607 1.22131411E-08
  1 608 1.21961917E-08
  1 609 1.21215558E-08
  1 610 1.21358524E-08
  1 611 1.20717455E-08
  1 612 1.20549290E-08
  1 613 1.20041412E-08
  1 614 1.18924775E-08
  1 615 1.19312491E-08
  1 616 1.19468525E-08
  1 617 1.16820174E-08
  1 618 1.16519191E-08
  1 619 1.16297086E-08
  1 620 1.16347334E-08
  1 621 1.15962434E-08
  1 622 1.14756174E-08
  1 623 1.09051906E-08
  1 624 1.06084798E-08
  1 625 1.02837385E-08
  1 626 1.02335018E-08
  1 627 1.02289265E-08
  1 628 1.02493319E-08
  1 629 1.02238865E-08
  1 630 1.02192988E-08
  1 631 1.02389053E-08
  1 632 1.03094017E-08
  1 633 1.02313402E-08
  1 634 1.02096039E-08
  1 635 1.02435675E-08
  1 636 1.03126623E-08
  1 637 1.04432112E-08
  1 638 1.06195203E-08
  1 639 1.12088368E-08
  1 640 1.22890411E-08
  1 641 1.29326755E-08
  1 642 1.29050786E-08
  1 643 1.33963257E-08
  1 644 1.33986009E-08
  1 645 1.33958609E-08
  1 646 1.33976474E-08
  1 647 1.71194023E-08
  1 648 1.72265401E-08
  1 649 1.72221958E-08
  1 650 1.72050794E-08
  1 651 1.72285057E-08
  1 652 1.62056636E-08
  1 653 1.58450683E-08
  1 654 1.58580395E-08
  1 655 1.56138823E-08
  1 656 1.59366458E-08
  1 657 1.64035266E-08
  1 658 1.46516227E-08
  1 659 1.42075480E-08
  1 660 9.96498077E-09
  1 661 9.89960123E-09
  1 662 1.20466249E-08
  1 663 1.19261978E-08
  1 664 9.80367035E-09
  1 665 9.75895922E-09
  1 666 9.72468104E-09
  1 667 9.25450403E-09
  1 668 9.98114137E-09
  1 669 1.00335495E-08
  1 670 1.01818747E-08
  1 671 9.62784205E-09
  1 672 9.41927710E-09
  1 673 7.35436688E-09
  1 674 1.18298581E-08
  1 675 1.18461219E-08
  1 676 1.18543502E-08
  1 677 1.18913380E-08
  1 678 7.42520036E-09
  1 679 7.42420040E-09
  1 680 1.07128013E-08
  1 681 1.06616098E-08
  1 682 1.05858772E-08
  1 683 1.06197716E-08
  1 684 1.30271491E-08
  1 685 1.35420820E-08
  1 686 1.34585219E-08
  1 687 1.34219991E-08
  1 688 1.33630146E-08
  1 689 1.31063405E-08
  1 690 1.26774876E-08
  1 691 1.18152321E-08
  1 692 1.16309652E-08
  1 693 1.02389917E-08
  1 694 1.29172996E-08
  1 695 1.33981094E-08
  1 696 9.41806163E-09
  1 697 1.18337819E-08
  1 698 7.42082499E-09
  1 699 1.33989303E-08
  1 700 1.33972181E-08
  1 701 1.33976737E-08
  1 702 1.71227099E-08
  1 703 9.36931698E-09
  1 704 9.85678556E-09
  1 705 1.72001480E-08
  1 706 1.01817938E-08
  1 707 1.00275784E-08
  1 708 1.58635483E-08
  1 709 9.89921563E-09
  1 710 1.42075711E-08
  1 711 1.60214900E-08
  1 712 1.64288514E-08
  1 713 1.47658262E-08
  1 714 1.42076620E-08
  1 715 9.96510341E-09
  1 716 9.89959097E-09
  1 717 9.80205869E-09
  1 718 1.19259143E-08
  1 719 9.80232811E-09
  1 720 9.76134083E-09
  1 721 9.97287075E-09
  1 722 9.17518997E-09
  1 723 9.99695345E-09
  1 724 1.00364491E-08
  1 725 1.01746096E-08
  1 726 9.66879308E-09
  1 727 9.41929776E-09
  1 728 7.35485166E-09
  1 729 1.18265429E-08
  1 730 1.18440111E-08
  1 731 1.18788055E-08
  1 732 1.17070604E-08
  1 733 7.42622337E-09
  1 734 7.43161183E-09
  1 735 1.06652089E-08
  1 736 1.06228252E-08
  1 737 1.05327642E-08
  1 738 1.30143951E-08
  1 739 1.34282270E-08
  1 740 1.31010934E-08
  1 741 9.74518657E-09
  1 742 1.18812817E-08
  1 743 1.29248126E-08
  1 744 1.02405046E-08
  1 745 1.29177847E-08
  1 746 1.33983515E-08
  1 747 9.96416957E-09
  1 748 1.18357601E-08
  1 749 1.33986504E-08
  1 750 1.33989573E-08
  1 751 9.23093897E-09
  1 752 1.33972699E-08
  1 753 9.50284597E-09
  1 754 9.33550081E-09
  1 755 9.84481708E-09
  1 756 1.71976179E-08
  1 757 1.01818011E-08
  1 758 1.00305172E-08
  1 759 1.60642787E-08
  1 760 9.37574780E-09
  1 761 1.42077152E-08
  1 762 9.96777124E-09
  1 763 9.89921547E-09
  1 764 7.42765340E-09
  1 765 1.01759749E-08
  1 766 9.80037077E-09
  1 767 1.00301093E-08
  1 768 9.13740833E-09
  1 769 9.98961982E-09
  1 770 1.00389634E-08
  1 771 1.01820843E-08
  1 772 9.59715301E-09
  1 773 9.41810638E-09
  1 774 1.18341874E-08
  1 775 1.18243374E-08
  1 776 1.18429670E-08
  1 777 7.42225066E-09
  1 778 1.16097165E-08
  1 779 7.42863287E-09
  1 780 7.43904490E-09
  1 781 9.43708412E-09
  1 782 1.05764669E-08
  1 783 1.04902493E-08
  1 784 9.68735124E-09
  1 785 9.80159346E-09
  1 786 1.30960989E-08
  1 787 9.73797170E-09
  1 788 9.16367495E-09
  1 789 1.29287003E-08
  1 790 9.91093464E-09
  1 791 1.29237592E-08
  1 792 1.33984753E-08
  1 793 1.00165804E-08
  1 794 9.30017830E-09
  1 795 1.33985131E-08
  1 796 1.33987774E-08
  1 797 9.21441235E-09
  1 798 9.56640838E-09
  1 799 9.46973043E-09
  1 800 9.86450744E-09
  1 801 9.59738045E-09
  1 802 9.23438144E-09
  1 803 9.26546177E-09
  1 804 1.60856449E-08
  1 805 9.49637288E-09
  1 806 9.44277017E-09
  1 807 9.33485686E-09
  1 808 9.53490213E-09
  1 809 1.29268242E-08
  1 810 9.88398146E-09
  1 811 9.89940393E-09
  1 812 1.01766909E-08
  1 813 1.01818183E-08
  1 814 9.93765991E-09
  1 815 1.00270014E-08
  1 816 9.11926130E-09
  1 817 9.13166944E-09
  1 818 9.63330628E-09
  1 819 1.00362218E-08
  1 820 1.01733343E-08
  1 821 9.19689620E-09
  1 822 1.18380466E-08
  1 823 9.77176508E-09
  1 824 9.70366432E-09
  1 825 1.05276420E-08
  1 826 7.43784944E-09
  1 827 7.42685314E-09
  1 828 7.43606872E-09
  1 829 9.40342419E-09
  1 830 1.05546650E-08
  1 831 1.04886680E-08
  1 832 9.65782188E-09
  1 833 9.82932959E-09
  1 834 1.30984997E-08
  1 835 9.71646228E-09
  1 836 9.15607967E-09
  1 837 1.29306769E-08
  1 838 9.93819832E-09
  1 839 1.29210125E-08
  1 840 9.99047371E-09
  1 841 1.00424958E-08
  1 842 9.29499183E-09
  1 843 1.33986887E-08
  1 844 1.33987894E-08
  1 845 9.56028708E-09
  1 846 9.47023591E-09
  1 847 1.29296858E-08
  1 848 9.16558508E-09
  1 849 9.58195985E-09
  1 850 9.68630238E-09
  1 851 9.24815956E-09
  1 852 9.78848365E-09
  1 853 9.50956661E-09
  1 854 9.27472412E-09
  1 855 1.29283762E-08
  1 856 1.29252852E-08
  1 857 9.51894335E-09
  1 858 1.29267455E-08
  1 859 9.89774041E-09
  1 860 9.89939918E-09
  1 861 9.75492967E-09
  1 862 9.11625860E-09
  1 863 9.14749369E-09
  1 864 9.11041234E-09
  1 865 9.12826377E-09
  1 866 9.61531600E-09
  1 867 1.00332585E-08
  1 868 9.18015943E-09
  1 869 9.21383753E-09
  1 870 9.19465902E-09
  1 871 1.18318146E-08
  1 872 9.77355430E-09
  1 873 1.05462330E-08
  1 874 9.70195705E-09
  1 875 9.84309127E-09
  1 876 9.64289027E-09
  1 877 9.67264087E-09
  1 878 1.05655784E-08
  1 879 1.05107650E-08
  1 880 9.65112986E-09
  1 881 9.82501256E-09
  1 882 9.73087085E-09
  1 883 9.72088531E-09
  1 884 9.65998111E-09
  1 885 9.48660984E-09
  1 886 9.31526341E-09
  1 887 1.29317884E-08
  1 888 1.29229016E-08
  1 889 1.29207460E-08
  1 890 1.00553832E-08
  1 891 1.00406885E-08
  1 892 9.28281154E-09
  1 893 9.57881169E-09
  1 894 1.33988669E-08
  1 895 9.54157502E-09
  1 896 9.55072323E-09
  1 897 9.48309325E-09
  1 898 1.29222462E-08
  1 899 9.58800496E-09
  1 900 9.55858268E-09
  1 901 9.54282980E-09
  1 902 1.29230011E-08
  1 903 1.29291924E-08
  1 904 9.64223851E-09
  1 905 9.69500137E-09
  1 906 9.66524519E-09
  1 907 1.29257763E-08
  1 908 1.29277202E-08
  1 909 9.51091202E-09
  1 910 1.29291570E-08
  1 911 1.29260531E-08
  1 912 9.52694003E-09
  1 913 1.29275986E-08
  1 914 1.05369463E-08
  1 915 9.62433236E-09
  1 916 9.74646637E-09
  1 917 9.60625645E-09
  1 918 9.15554313E-09
  1 919 9.14668391E-09
  1 920 9.10872644E-09
  1 921 9.12390872E-09
  1 922 9.61267334E-09
  1 923 1.00375839E-08
  1 924 9.17188254E-09
  1 925 9.75941321E-09
  1 926 9.18488444E-09
  1 927 9.78761329E-09
  1 928 9.78013863E-09
  1 929 1.05555020E-08
  1 930 1.05437269E-08
  1 931 9.68000936E-09
  1 932 9.63538097E-09
  1 933 9.67756657E-09
  1 934 1.05217768E-08
  1 935 1.05089807E-08
  1 936 9.65037040E-09
  1 937 9.81549790E-09
  1 938 9.72944494E-09
  1 939 9.73804009E-09
  1 940 9.71229202E-09
  1 941 9.49474521E-09
  1 942 1.29308624E-08
  1 943 9.31753476E-09
  1 944 1.29316735E-08
  1 945 1.29238544E-08
  1 946 1.29191451E-08
  1 947 1.00500057E-08
  1 948 1.00295617E-08
  1 949 9.56957258E-09
  1 950 9.57420067E-09
  1 951 1.33988597E-08
  1 952 9.53214766E-09
  1 953 9.55095469E-09
  1 954 1.29214945E-08
  1 955 1.29219543E-08
  1 956 9.58968632E-09
  1 957 1.29233797E-08
  1 958 1.29264382E-08
  1 959 1.29256687E-08
  1 960 1.29295487E-08
  1 961 9.69466696E-09
  1 962 1.29287662E-08
  1 963 1.29262602E-08
  1 964 1.29272321E-08
  1 965 9.51613060E-09
  1 966 1.29282095E-08
  1 967 1.29252938E-08
  1 968 9.13953346E-09
  1 969 9.75231081E-09
  1 970 9.60504266E-09
  1 971 9.62027300E-09
  1 972 1.00348486E-08
  1 973 9.76649422E-09
  1 974 9.76336232E-09
  1 975 9.78059385E-09
  1 976 1.29200761E-08
  1 977 1.05183201E-08
  1 978 1.04997287E-08
  1 979 1.29233773E-08
  1 980 9.81506651E-09
  1 981 9.72367839E-09
  1 982 1.29243328E-08
  1 983 9.70922198E-09
  1 984 1.29313248E-08
  1 985 1.29304012E-08
  1 986 1.29301807E-08
  1 987 1.29311745E-08
  1 988 1.29327190E-08
  1 989 1.29245206E-08
  1 990 1.29192589E-08
  1 991 1.00313465E-08
  1 992 1.29214827E-08
  1 993 1.29224273E-08
  1 994 1.29218699E-08
  1 995 1.29226232E-08
  1 996 1.29260181E-08
  1 997 1.29272110E-08
  1 998 1.29279870E-08
  1 999 1.05052499E-08
  1 1000 1.29205436E-08
  1 1001 1.05162740E-08
  1 1002 1.04996237E-08
  1 1003 1.29231393E-08
  1 1004 1.29245726E-08
  1 1005 1.29216821E-08
  1 1006 1.29200009E-08
  1 1007 1.29249025E-08
  1 1008 1.29322531E-08
  1 1009 1.29321738E-08
  1 1010 1.29241395E-08
  1 1011 1.29182196E-08
  1 1012 1.29221906E-08
  1 1013 1.29217184E-08
  1 1014 1.29226643E-08
  1 1015 1.29212474E-08
  1 1016 1.29203097E-08
  1 1017 1.29207779E-08
  1 1018 1.29211199E-08
  1 1019 1.04942014E-08
  1 1020 1.29203730E-08
  1 1021 1.29196295E-08
  1 1022 1.29196099E-08
  1 1023 1.29240935E-08
  1 1024 1.29331860E-08
  1 1025 1.29186817E-08
  1 1026 1.29185202E-08
  1 1027 1.29209329E-08
  1 1028 1.04949387E-08
  1 1029 1.29193774E-08
  1 1030 1.29198428E-08
  1 1031 1.29201868E-08
  1 1032 1.29188891E-08
  1 1033 1.29189133E-08
  1 1034 1.29177589E-08
  1 1035 1.29179891E-08
  1 1036 1.29187045E-08
  1 1037 1.29184505E-08
  1 1038 1.29194441E-08
  1 1039 1.29181520E-08
  1 1040 1.29190739E-08
  1 1041 1.29183360E-08
  1 1042 1.29175291E-08
  1 1043 1.29179682E-08
  1 1044 9.41753777E-09
  1 1045 9.41759338E-09
  1 1046 9.41867460E-09
  1 1047 9.41864148E-09
  1 1048 9.41834457E-09
  1 1049 9.41838359E-09
  1 1050 9.41897932E-09
  1 1051 9.41895232E-09
  1 1052 9.41879516E-09
  1 1053 9.41882524E-09
  1 1054 9.41913684E-09
  1 1055 9.41911297E-09
  1 1056 9.41852738E-09
  1 1057 9.41849127E-09
  1 1058 1.29338682E-08
  1 1059 9.41779269E-09
  1 1060 9.41784295E-09
  1 1061 9.41824327E-09
  1 1062 9.41820134E-09
  1 1063 1.19274193E-08
  1 1064 1.19277795E-08
  1 1065 1.19298888E-08
  1 1066 1.19285737E-08
  1 1067 1.19281752E-08
  1 1068 1.19285540E-08
  1 1069 1.19289716E-08
  1 1070 9.89903984E-09
  1 1071 9.89903635E-09
  1 1072 9.41729693E-09
  1 1073 9.41735767E-09
  1 1074 1.42118072E-08
  1 1075 9.10611605E-09
  1 1076 9.12552007E-09
  1 1077 9.12514279E-09
  1 1078 9.41681155E-09
  1 1079 9.80127187E-09
  1 1080 9.79940898E-09
  1 1081 1.33974300E-08
  1 1082 1.33974692E-08
  1 1083 1.33970117E-08
  1 1084 1.33970758E-08
  1 1085 9.80285819E-09
  1 1086 9.80134385E-09
  1 1087 1.42097910E-08
  1 1088 9.10084264E-09
  1 1089 9.11494433E-09
  1 1090 9.11434318E-09
  1 1091 1.42078744E-08
  1 1092 9.10904153E-09
  1 1093 9.10975862E-09
  1 1094 9.10641645E-09
  1 1095 9.10719252E-09
  1 1096 9.89866159E-09
  1 1097 9.77093968E-09
  1 1098 9.81205931E-09
  1 1099 9.89854495E-09
  1 1100 9.78471014E-09
  1 1101 9.80610296E-09
  1 1102 9.80325655E-09
  1 1103 9.79706221E-09
  1 1104 1.33965595E-08
  1 1105 1.18303528E-08
  1 1106 1.18270867E-08
  1 1107 1.18322670E-08
  1 1108 1.18284697E-08
  1 1109 1.18257093E-08
  1 1110 1.18284448E-08
  1 1111 1.33975398E-08
  1 1112 1.29652593E-08
  1 1113 1.26271864E-08
  1 1114 1.33979416E-08
  1 1115 1.29495100E-08
  1 1116 1.27841844E-08
  1 1117 1.33981554E-08
  1 1118 1.29415954E-08
  1 1119 1.28595050E-08
  1 1120 1.29376281E-08
  1 1121 1.28963600E-08
  1 1122 1.29145853E-08
  1 1123 1.29236473E-08
  1 1124 1.29281656E-08
  1 1125 1.18880962E-08
  1 1126 1.19738489E-08
  1 1127 1.19091050E-08
  1 1128 1.19524859E-08
  1 1129 1.19191661E-08
  1 1130 1.19411479E-08
  1 1131 1.19240864E-08
  1 1132 1.19353140E-08
  1 1133 1.19265190E-08
  1 1134 1.19323558E-08
  1 1135 1.19308664E-08
  1 1136 1.18053673E-08
  1 1137 1.29409125E-08
  1 1138 1.19334830E-08
  1 1139 1.18216393E-08
  1 1140 1.18297145E-08
  1 1141 9.41633663E-09
  1 1142 9.41888162E-09
  1 1143 9.10264556E-09
  1 1144 1.42087805E-08
  1 1145 1.42026887E-08
  1 1146 1.33977358E-08
  1 1147 1.29276457E-08
  1 1148 9.41662067E-09
  1 1149 9.41785209E-09
  1 1150 9.09777701E-09
  1 1151 1.42051485E-08
  1 1152 9.41745544E-09
  1 1153 1.42063731E-08
  1 1154 1.42069841E-08
  1 1155 9.90008806E-09
  1 1156 1.42073306E-08
  1 1157 9.89931474E-09
  1 1158 9.89904971E-09
  1 1159 9.79389490E-09
  1 1160 1.33965041E-08
  1 1161 1.33986946E-08
  1 1162 1.19295044E-08
  1 1163 1.18307458E-08
  1 1164 9.05539248E-09
  1 1165 9.41678651E-09
  1 1166 1.33976794E-08
  1 1167 9.06585345E-09
  1 1168 1.33972553E-08
  1 1169 9.08078432E-09
  1 1170 9.08463787E-09
  1 1171 7.34366588E-09
  1 1172 1.42092849E-08
  1 1173 9.89812316E-09
  1 1174 9.08299697E-09
  1 1175 1.01571237E-08
  1 1176 1.02101695E-08
  1 1177 1.33967564E-08
  1 1178 1.33954017E-08
  1 1179 9.41547708E-09
  1 1180 1.01693526E-08
  1 1181 1.01755644E-08
  1 1182 9.97734677E-09
  1 1183 9.95153103E-09
  1 1184 9.95094101E-09
  1 1185 9.89748740E-09
  1 1186 7.33031476E-09
  1 1187 1.05836512E-08
  1 1188 1.30817959E-08
  1 1189 9.92432493E-09
  1 1190 9.92481053E-09
  1 1191 1.33962614E-08
  1 1192 1.02100114E-08
  1 1193 9.97139698E-09
  1 1194 1.19519228E-08
  1 1195 1.00035513E-08
  1 1196 9.45628796E-09
  1 1197 9.45372620E-09
  1 1198 1.31490449E-08
  1 1199 1.29609506E-08
  1 1200 1.19431066E-08
  1 1201 1.18146327E-08
  1 1202 9.89738993E-09
  1 1203 1.19432931E-08
  1 1204 1.29427500E-08
  1 1205 1.19422498E-08
  1 1206 9.81982706E-09
  1 1207 1.33947174E-08
  1 1208 9.97635951E-09
  1 1209 1.42078012E-08
  1 1210 1.33952007E-08
  1 1211 1.01515975E-08
  1 1212 1.01875427E-08
  1 1213 1.01566503E-08
  1 1214 1.01731801E-08
  1 1215 8.89633508E-09
  1 1216 1.33942524E-08
  1 1217 1.38552641E-08
  1 1218 1.72034078E-08
  1 1219 1.37240261E-08
  1 1220 7.39045636E-09
  1 1221 1.25014840E-08
  1 1222 7.32665317E-09
  1 1223 1.31917311E-08
  1 1224 1.19462309E-08
  1 1225 7.39782909E-09
  1 1226 1.43902887E-08
  1 1227 1.29413672E-08
  1 1228 7.46180287E-09
  1 1229 8.70011570E-09
  1 1230 1.35001987E-08
  1 1231 1.36938010E-08
  1 1232 1.32901859E-08
  1 1233 1.33948975E-08
  1 1234 9.76076833E-09
  1 1235 9.41875407E-09
  1 1236 7.35689839E-09
  1 1237 7.36843786E-09
  1 1238 9.95586932E-09
  1 1239 1.29033647E-08
  1 1240 1.29855999E-08
  1 1241 9.93238639E-09
  1 1242 1.33958807E-08
  1 1243 1.37449038E-08
  1 1244 1.42322977E-08
  1 1245 1.29659340E-08
  1 1246 1.34657902E-08
  1 1247 1.36985889E-08
  1 1248 7.34675418E-09
  1 1249 9.98671741E-09
  1 1250 1.37227618E-08
  1 1251 7.34498627E-09
  1 1252 7.33708757E-09
  1 1253 1.95609577E-08
  1 1254 1.53488349E-08
  1 1255 1.73701029E-08
  1 1256 1.38892633E-08
  1 1257 1.29372352E-08
  1 1258 1.29731987E-08
  1 1259 1.15543517E-08
  1 1260 1.42138329E-08
  1 1261 9.02039782E-09
  1 1262 1.02005897E-08
  1 1263 1.31048623E-08
  1 1264 1.01069613E-08
  1 1265 1.23952464E-08
  1 1266 1.30049323E-08
  1 1267 1.95540287E-08
  1 1268 1.73646596E-08
  1 1269 1.30179790E-08
  1 1270 1.95230848E-08
  1 1271 1.73619625E-08
  1 1272 1.95013078E-08
  1 1273 2.08719698E-08
  1 1274 1.20579024E-08
  1 1275 1.71795065E-08
  1 1276 1.71172490E-08
  1 1277 1.71982630E-08
  1 1278 9.18726876E-09
  1 1279 1.73435514E-08
  1 1280 1.39378862E-08
  1 1281 1.38042257E-08
  1 1282 1.38272467E-08
  1 1283 1.20486425E-08
  1 1284 9.42233267E-09
  1 1285 1.13939902E-08
  1 1286 1.19392359E-08
  1 1287 9.91345142E-09