# File generated by Flopy version 3.9.1 on 02/10/2026 at 20:25:42.
BEGIN options
  BUDGET  FILEOUT  voronoi_caseA.cbc
  HEAD  FILEOUT  voronoi_caseA.hds
END options

BEGIN period  1
  SAVE  head  last
  SAVE  budget  last
  PRINT  budget  last
END period  1

