# File generated by Flopy version 3.9.1 on 02/10/2026 at 20:25:42.
BEGIN options
END options

BEGIN griddata
  strt  LAYERED
    INTERNAL  FACTOR  1.0
           2.47589043       2.47667047       2.49184665       2.55470210       2.65441916       2.71069057       2.78603723       2.85439177       2.91723250       2.95309588       2.85830076       2.69128709       2.31274552       2.19814708       2.21124892       2.22204775       2.19986711       2.20533856       2.21511419       2.22085987
           2.21545492       2.22597566       2.23655604       2.23157019       2.23324368       2.24891961       2.25332137       2.26326192       2.25384155       2.27452674       2.49609025       2.96950877       3.07960592       3.11864246       3.64904332       3.14953620       2.83962445       2.81431773       2.80453864       2.75999737
           2.74979526       2.74635758       2.72020127       2.69554373       2.76484496       2.76514931       2.30856168       2.30765255       2.30287597       2.58856924       2.65850562       1.96645831       1.89209558       1.89422702       2.04682601       2.04808748       2.04986514       2.05099097       2.05446666       2.10265617
           1.97918422       1.89931128       2.16551842       2.25376449       2.25495415       2.25649327       2.25745688       2.26176159       2.26165907       2.26231350       2.26339872       2.26355493       2.26337599       2.29764763       2.10864447       2.02547542       1.96353477       1.96306037       1.96087071       1.96115035
           1.96038262       1.96145588       1.96129851       1.96179355       1.96174973       1.96190179       1.96232240       1.96367585       1.96355642       1.96314714       1.96316965       1.96361384       1.96404364       1.96524311       1.96511376       1.88538555       1.88484242       1.88573238       1.88459369       1.88494466
           1.88470701       1.88284169       1.88357217       1.88319713       1.88147416       1.88202927       1.88116781       1.88144388       1.88058213       1.88033299       1.87960542       1.87971813       1.87906339       1.87894541       1.87791114       1.87798903       1.87794164       1.87819995       1.87819389       1.87833928
           1.87860188       1.87908469       1.87871610       1.87846167       1.87800759       1.87677210       1.87602753       1.87647551       1.87619114       1.87835283       1.87665346       1.81054253       1.81034882       1.81147797       1.81059862       1.80936214       1.80927969       1.80942571       1.80901778       1.80858968
           1.80771002       1.80867521       1.80833283       1.80962743       1.81135929       1.81224770       1.81268471       1.81428876       1.81372410       1.81385008       1.81316703       1.81429747       1.81205142       1.81397536       1.80973873       1.80844264       1.80802874       1.80724083       1.80537332       1.80751559
           1.80490298       1.80742743       1.80823121       1.81136610       1.80245455       1.80152960       1.79883155       1.79968150       1.80501948       1.80683086       1.80570008       1.85242753       1.84921136       1.84145864       1.84712408       1.85103212       1.86807154       1.86869812       1.87144506       1.85451574
           1.85957059       1.87267177       1.87465176       1.84534613       1.87867331       1.84781697       1.88870557       1.88678578       1.89052865       1.88887095       1.89160754       1.89549208       1.87698176       1.85447366       1.85098904       1.84342170       1.83770223       1.84050610       1.85450722       1.73817143
           1.76556033       1.70534145       1.69878836       1.78050905       0.46582070       0.48117559       0.48354471       0.49148165       0.49607228       0.49893632       0.50998733       0.51680315       0.51962867       0.52078133       0.52347234       0.52252123       0.52927659       0.58422494       0.54466053       0.59171510
           0.50676036       0.50515669       0.50175968       0.49756071       0.48973776       0.48501399       0.48208695       0.48571601       0.46041278       0.46143222       0.46363355       0.46701263       0.46877945       0.45471838       0.47124520       0.47519661       0.48415069       0.46162594       0.46610709       0.46809304
           0.44545673       0.47688995       0.45476387       0.44255655       0.53932530       0.56969573       0.57266638       0.57288174       0.57219800       0.54295484       0.54357350       0.54364573       0.54358540       0.54421256       0.54671079       0.55008771       0.63197410       0.63946244       0.70661553       0.71652359
           0.72870557       0.74576227       0.76079078       0.76990602       0.77501760       0.76047313       0.75976257       0.74574766       0.73507307       0.69657288       0.68023560       0.65208784       0.63595216       0.52864129       0.50518680       0.52266626       0.49038967       0.44351801       0.42365626       0.42447788
           0.43603292       0.42037749       0.42124086       0.42070245       0.41920297       0.42030582       0.41982574       0.41844794       0.41935584       0.41897094       0.42143405       0.42536907       0.41165303       0.40877831       0.40766047       0.40818954       0.40764975       0.40711897       0.40390125       0.40540425
           0.40970455       0.40434747       0.35456250       0.33699525       0.33321585       0.32912290       0.32539401       0.32527073       0.32231800       0.30213675       0.29461780       0.29326185       0.29217820       0.29210107       0.29186923       0.28599418       0.28500998       0.28503672       0.28500986       0.28515521
           0.28626883       0.28558066       0.27075145       0.26181280       0.24505168       0.24558029       0.25871229       0.25960464       0.26370329       0.26414641       0.26655032       0.26771374       0.26660750       0.26702405       0.26763803       0.26784034       0.26815080       0.26719975       0.26649935       0.25833811
           0.23135289       0.23026586       0.23428231       0.23014364       0.22945704       0.29415179       0.31779737       0.34328372       0.34345556       0.34548913       0.34572499       0.33949154       0.33963640       0.34407642       0.34418226       0.34241658       0.34262707       0.33839976       0.34558382       0.34534279
           0.34286233       0.34111634       0.33919341       0.33333574       0.33390773       0.33101793       0.33070043       0.33417574       0.34051469       0.34223586       0.34463404       0.34597189       0.22927660       0.44014543       0.52997087       0.51584446       0.51433225       0.51526926       0.49745064       0.39163713
           0.37937245       0.37889327       0.39603078       0.40221518       0.42763756       0.47272516       0.47175088       0.39485194       0.38865653       0.39039760       0.37091768       0.34588247       0.33527261       0.33752506       0.33547547       0.33490177       0.40619682       0.42405955       0.45107074       0.54032636
           0.61746982       0.62459201       0.62500874       0.62528100       0.62432860       0.63692284       0.62734260       0.62750795       0.63206090       0.64330705       0.72798043       0.77644467       0.77886988       0.77898358       0.78851306       0.79613152       0.80878396       0.81336849       0.78681524       0.72297011
           0.72572642       0.71837182       0.67442808       0.64684456       0.58469246       0.43562291       0.42313207       0.42028424       0.42232442       0.42410021       0.42936127       0.43531350       0.44002995       0.44500094       0.43460912       0.44791393       0.44340445       0.44578092       0.46168064       0.48231935
           0.51535622       0.53484346       0.53419785       0.53741883       0.53911041       0.54168837       0.53846568       0.54307278       0.58165461       0.59433649       0.60728102       0.62102342       0.63057320       0.64041093       0.67827169       0.68026961       0.70315899       0.67464585       0.67356355       0.68196585
           0.67498605       0.67678060       0.65144740       0.65311931       0.64590279       0.70650196       0.78315649       0.83652066       0.89155747       1.01227689       1.02096059       1.03902722       1.05085505       1.05530474       1.04960618       1.05064485       1.07404483       1.17252327       1.21199979       1.21750611
           1.24338419       1.28397672       1.29319407       1.29607287       1.32155959       1.34395034       1.39279133       1.43113302       1.47951844       1.49270769       1.49663431       1.52566275       1.55167394       1.57156204       1.58586184       1.61057535       1.63196357       1.69575060       1.70685984       1.72529962
           1.78560493       1.79706832       1.84498221       1.85408082       1.85921976       1.86559514       1.86912471       1.87165798       1.87408418       1.87425556       1.87030037       1.86757810       1.86468895       1.86127797       1.85808892       1.84742256       1.84026123       1.82148817       1.81600178       1.80359623
           1.80381560       1.78744775       1.78775057       1.78576000       1.78533026       1.78178704       1.77813142       1.76872363       1.76217810       1.76409313       1.75027109       1.74936617       1.74352014       1.74046647       1.73843871       1.73293423       1.73072593       1.72223053       1.71832195       1.70101359
           1.68599224       1.68373455       1.68130282       1.67723087       1.67531836       1.66261835       1.65953837       1.65418924       1.64641969       1.64838635       1.64534396       1.64437204       1.63505400       1.62110322       1.60638262       1.60686009       1.60068597       1.59894614       1.59573647       1.59717839
           1.58174455       1.58176519       1.58538874       1.57660232       1.56485268       1.56141466       1.54829962       1.53235114       1.52870943       1.52801464       1.52187438       1.51314680       1.51271210       1.50380342       1.49904482       1.49935686       1.50445924       1.50185074       1.50367329       1.50030112
           1.50394000       1.50221855       1.50419317       1.50079595       1.47896743       1.47548963       1.46961563       1.46778859       1.46949094       1.46649914       1.46935928       1.46614949       1.46751528       1.46576484       1.47024290       1.46683372       1.47009696       1.46665064       1.46948487       1.47466704
           1.47160802       1.47231196       1.46936305       1.47005696       1.47359704       1.47477665       1.47438226       1.47931324       1.48660372       1.48749286       1.49275978       1.49062088       1.49489129       1.51779598       1.51420967       1.51644955       1.53920983       1.54611989       1.54496775       1.55330374
           1.55498551       1.56591995       1.64378922       1.69265761       1.75508001       1.77142573       1.77559687       1.77641940       1.77722149       1.77922968       1.78055096       1.77751929       1.80361891       1.84258743       1.90537945       1.94531678       1.99699377       2.04382220       2.14711501       2.33803677
           2.47643577       2.47036226       2.21330589       2.23223582       2.24009312       2.25885439       1.96173155       1.92450786       1.88369829       1.87834401       1.81087591       1.80910953       1.80675118       1.80228547       1.86993085       1.87621406       1.83940623       0.51815961       0.54360832       0.42284830
           0.40800313       0.28802042       0.28501722       0.26697896       0.26803010       0.26767494       0.25561962       0.34252298       0.34165781       0.33244578       0.33365417       0.51493951       0.33644083       0.62475849       0.62480290       0.62742960       0.75273685       0.44098600       0.43980469       0.67988056
           0.67803112       0.65402637       0.67617946       1.06230142       1.63986080       1.60299364       1.58702163       1.57986673       1.50112791       1.46845210       1.52719536       1.54795464       1.77673186       2.47314085       2.22910608       0.51543770       0.62467431       0.43780315       2.23452284       2.25608901
           2.25903091       1.96225586       0.28591307       0.34560762       1.87812744       0.33331296       0.34360540       1.80456438       0.40783192       0.54359693       1.87708981       1.83854115       0.47919716       0.54359969       0.42366224       0.40799276       0.26676456       0.28501712       0.26700868       0.26777672
           0.34410221       0.23903619       0.34182201       0.34000131       0.33247520       0.33681246       0.51475072       0.33640396       0.62509504       0.62504149       0.63024675       0.73856981       0.44287964       0.44387143       0.67778097       0.67902704       0.65132606       1.05646189       1.59212108       1.50278585
           0.34158951       1.52165303       2.47477551       1.77605916       2.47325629       2.23067105       0.34659643       0.62463292       2.23304622       2.23439620       0.25106439       2.25643663       0.31522301       0.27531076       0.34349712       1.87801925       0.33374494       0.34262758       1.87751163       0.28502006
           0.54358665       0.42399023       0.40782138       0.44184097       0.33319474       0.26680812       0.34130212       0.23322853       0.34098642       0.34001590       0.33157475       0.32894564       0.51505841       0.62518544       0.62488175       0.62516113       0.44145682       0.73094821       0.44299605       0.44616684
           0.30189815       0.65399571       0.64866203       0.33944629       0.34409746       1.50337113       0.34020734       0.23727824       2.47560242       0.34637471       2.47456561       2.23145346       0.34642399       0.26826006       2.23230813       2.23331607       0.24665517       0.32572037       0.30682933       0.34350443
           0.32998282       0.25100410       0.25942913       1.87771803       0.31254227       0.30068353       0.27718989       0.32081482       2.47522608       0.34607048       0.40791756       0.33355208       0.33287988       0.34654332       0.34196158       0.23108654       0.23248417       0.33324498       0.34083371       0.33174948
           0.24355955       0.62523257       0.34194830       0.33799004       0.65089979       0.44478459       0.44199165       0.44589582       0.29420043       0.65266434       0.64862857       0.33679005       0.34495988       1.50362066       0.33986384       0.23588484       2.47601829       0.34566440       2.47395499       0.34655157
           0.34622694       0.26535696       2.23277596       2.23378446       0.32382396       0.30891788       2.47581016       0.23740062       0.32792887       0.33667835       0.25516393       0.34266261       0.31522788       0.26042801       2.47555777       2.47489536       0.31810686       2.47518816       0.34451443       0.40790711
           0.34113274       0.23068350       0.23468464       0.23020866       0.23209286       0.33119252       0.34064870       0.24024629       0.24718026       0.24264424       0.62471616       0.34298663       0.65201182       0.33886340       0.34530864       0.33528553       0.33817470       0.65333088       0.64998083       0.33511448
           0.34342627       0.34077055       0.33916299       0.33598420       0.31216043       0.27033844       2.47627976       2.47436445       2.47390902       0.34610601       0.34547978       0.26381042       0.32649306       2.23385615       0.32092832       0.32335096       0.30974193       2.47423683       0.32774575       0.32455615
           0.32210406       2.47440110       2.47570624       0.33420188       0.33735219       0.33749693       2.47498164       2.47539509       0.31668713       2.47572398       2.47506059       0.31948260       2.47539180       0.65145637       0.33224234       0.34068433       0.33009409       0.23593320       0.23449312       0.22993169
           0.23153394       0.33188895       0.34042401       0.23871706       0.34232639       0.24078618       0.34357537       0.34231759       0.65256613       0.65199607       0.33882420       0.33448614       0.33596718       0.65065432       0.64978320       0.33605320       0.34455752       0.33970063       0.34119064       0.33859321
           0.31371418       2.47608492       0.27273342       2.47622683       2.47456978       2.47354713       0.34541515       0.34633339       0.32518622       0.32684435       2.23415363       0.31939275       0.32240504       2.47407280       2.47415952       0.32897475       2.47448332       2.47514330       2.47497795       2.47580717
           0.33832609       2.47564084       2.47508485       2.47529158       0.31652719       2.47549871       2.47487852       0.23353455       0.34196786       0.33095393       0.33278873       0.34032425       0.34266577       0.34155370       0.34328963       2.47375086       0.65034206       0.64930558       2.47446707       0.34336450
           0.34032853       2.47467259       0.33937572       2.47618230       2.47598763       2.47591417       2.47612251       2.47647494       2.47473036       2.47358217       0.34553619       2.47405721       2.47426194       2.47415479       2.47431893       2.47503323       2.47530891       2.47547475       0.64964342       2.47385288
           0.65031779       0.64922319       2.47441575       2.47472404       2.47411379       2.47374548       2.47481283       2.47637731       2.47633125       2.47464795       2.47334379       2.47421072       2.47410835       2.47431318       2.47400609       2.47380186       2.47390392       2.47399088       0.64896730       2.47382722
           2.47366379       2.47364894       2.47462117       2.47657266       2.47344541       2.47341911       2.47394994       0.64894275       2.47359802       2.47369989       2.47378634       2.47350061       2.47349626       2.47324227       2.47329302       2.47345986       2.47339459       2.47362298       2.47333767       2.47354139
           2.47337839       2.47319155       2.47329698       0.51565276       0.51517618       0.51491643       0.51519978       0.51532157       0.51499042       0.51483651       0.51507240       0.51513679       0.51487721       0.51479434       0.51500664       0.51495417       0.51526137       2.47669711       0.51554812       0.51512035
           0.51502517       0.51538034       0.28501322       0.28501333       0.28500848       0.28501159       0.28501148       0.28501065       0.28501076       0.40773560       0.40774623       0.51575156       0.51522583       0.54326139       0.23077051       0.23205912       0.23200325       0.51553141       0.26665742       0.26670782
           2.25747200       2.25773388       2.25470546       2.25513918       0.26687174       0.26690840       0.54341674       0.22997122       0.23107094       0.23098208       0.54355365       0.23054031       0.23064584       0.23033638       0.23045026       0.40738107       0.26685409       0.26534110       0.40746617       0.26674015
           0.26594406       0.26624679       0.26645602       2.25150807       0.62513959       0.62481965       0.62516235       0.62478895       0.62485059       0.62511716       2.23230524       2.48426685       2.40721740       2.23191238       2.48047062       2.44189125       2.23173496       2.47857102       2.45918901       2.47762086
           2.46781997       2.47212992       2.47428337       2.47535970       0.28505521       0.28519271       0.28501849       0.28504855       0.28501067       0.28502006       0.28500939       0.28501320       0.28500940       0.28501119       0.28501049       0.62103915       2.47833670       0.28500733       0.62281769       0.62370538
           0.52284868       0.50659521       0.22976884       0.54349494       0.54389830       2.22917709       2.47513138       0.51933037       0.51052170       0.22947840       0.54374176       0.51289011       0.54366357       0.54362448       0.40819884       0.54356731       0.40792450       0.40779120       0.26616339       2.25109336
           2.26358231       0.28500332       0.62297793       0.23897410       0.51149814       2.25855858       0.22694346       2.25616139       0.22717428       0.22794705       0.33356896       0.54341156       0.40715588       0.22871296       0.33725762       1.77555063       2.22070473       2.24252254       0.51897847       0.33569523
           0.33493018       0.34658525       0.34570789       0.34658316       0.34624091       0.42295178       0.67617055       1.49653385       0.34647465       0.34559228       2.24808366       1.77817338       0.43439654       0.32397308       0.34649725       0.30380817       0.30549610       1.51798355       2.48302858       0.28500778
           0.62010149       0.40633412       0.32461937       2.47855211       0.32487279       0.26298474       2.20954988       0.43886326       0.54339051       2.21837888       0.33365881       1.78622422       0.33493910       1.78079303       0.53765137       2.22581122       1.79008452       1.87814979       1.72642414       0.43751424
           1.46613362       0.41847628       1.51843415       0.32519917       0.43452904       0.57119983       0.78337956       0.44449371       0.52818739       1.60346647       1.71080202       1.54075929       1.58160963       0.26517823       0.50091763       0.33510412       0.33845096       0.43004726       2.46899736       2.48826324
           0.26212953       2.24426142       1.72863781       0.57183440       0.78352437       1.59575821       1.71459130       0.33629703       0.25953084       1.71890925       0.33564181       0.33314084       0.54838580       0.46427858       2.26003631       1.50097743       1.45922268       1.48971159       1.55406130       0.54297747
           0.22553478       1.76473757       1.49134481       0.33619856       1.45964410       0.78319437       0.51004704       2.26089482       1.49620163       0.50831595       2.26132717       0.50751657       0.51607477       0.28903346       1.96211277       1.96177235       1.96387303       0.56416158       2.26418145       1.79220920
           1.77344043       1.77461083       1.48394846       0.63880757       0.58457859       0.62850634       0.40511512       2.18912257       0.42633525       0.41682226       1.50839792       0.42002491       0.43730756       1.68738367       0.33003255       0.40465568       0.24568372       0.28977546       0.55516218       1.78006045
           0.59604356       0.60099172       0.40601846       2.21248429       0.40485412       0.32906090       0.23289354       0.54057054       0.60863153       1.22868903       1.75481918       2.25029070       0.28502924       1.80657228       0.32359770       1.53066795       0.42267211       1.45207194       1.53535447       1.74738887
           0.45405797       0.47430958       0.48222413       0.74167005       0.71777962       1.31601204       2.20208843       1.75072831       1.46290713       1.80142090       0.42181425       1.58124476       0.54229823       0.50020144       0.44182376       0.28509263       1.79595565       1.48827026       2.20602362       1.79675426
           2.16435320       0.48684205       1.87829727       0.29411006       0.38173838       1.88001714       0.70971354       1.03046916       0.51696290       1.63592822       0.47168417       2.26047705       0.68690647       1.72911574       0.36226589       0.28987147       0.55383600       0.32781317       0.50868931       0.28503434
           1.51832136       0.45646835       1.75515692       1.44716253       0.54043286       0.73922167       0.65483747       0.34657271       0.31942029       0.54228732       0.72289280       0.33760785       0.33560794       0.28244200       1.08380673       1.96130528       2.67373530       1.86737490       0.26021586       0.26474754
           0.44239487       0.24962108       0.40997970       2.37372106       1.82399484       1.45432907       1.56227122       1.30190786       0.32344735       1.04310706       0.32763423       1.96108902       2.78359158       0.25175683       2.31989816       2.77422602       2.29599615       2.76953727       0.47711842       0.48470424
           1.80885042       1.87708481       1.87990441       1.88579302       0.60080803       0.33061990       0.75403888       0.80132458       1.96460024       2.10768526       2.26306959       0.40038230       1.87863657       2.26141927       0.49349271       1.78839303       0.28633855       1.87114930       2.25545056       1.80864817
           1.87663734       0.63971466       0.76574173       1.96446342       2.29816181       1.87641407       0.62077224       1.81033894       0.37826089       1.88437050       1.88499992       1.87805426       2.52358006       2.46221051       1.72201214       1.72261091       1.75045415       1.77960004       1.81181130       0.54170704
           0.30753421       2.77290159       1.78122719       0.28732968       1.87749963       1.70523989       0.31044908       0.32033963       0.51808242       1.88057272       1.85369911       1.96658400       1.60243099       1.87870546       1.20155754       1.43055353       0.45573869       0.45982800       0.28939267       1.51308677
           1.85710502       1.27678250       1.34994035       1.07162404       1.96191191       0.44761731       1.87978357       2.25885807       0.26121274       2.10291754       1.80644854       0.68605062       0.77609832       0.37258245       1.96570847       0.45976901       1.80774886       0.48318565       0.76615731       1.96266260
           2.30801425       1.88891584       1.45849031       1.84986648       1.45610821       0.25341243       0.60454408       0.66766311       0.30018332       0.32725875       0.26397555       0.41641713       0.30292920       2.10826610       1.88605768       2.56453773       1.79967963       1.55955703       1.86784107       1.88890490
           0.46326040       1.81517141       1.81056002       1.88002208       0.36820159       0.80280539       2.09740948       0.49167474       0.95047886       0.24981274       1.84561742       1.63242663       1.37071446       1.80617996       0.76924230       0.98850983       1.72632665       0.44005919       0.45160297       1.80621905
           1.88418359       2.10039608       0.34716252       1.55837541       0.34729195       1.12280217       0.33270254       1.96347177       1.88468638       1.81471103       2.75641455       0.31325671       0.64600548       1.27039833       0.77210317       1.73520177       1.81065303       1.89335069       1.16507002       1.96211720
           1.85245504       0.45823517       0.47556147       1.88281051       1.81242104       1.88898060       1.87956856       0.76410165       0.67210518       0.46201357       1.96394292       2.29218288       0.30009718       2.11076438       1.88895531       1.89716741       1.91002124       1.65440212       1.65457703       0.69326076
           0.42662140       0.69755220       1.88347375       0.30243976       1.88847502       1.82968598       0.62454994       2.87700688       2.76523272       0.47989767       0.72247640       0.39502056       0.45119449       1.85457945       0.15483439       0.47689305       2.69781478       1.81330176       0.40523703       0.93656920
           0.48095145       0.34142490       1.96662746       1.81000516       1.96552655       1.98898706       1.58967430       1.86306982       2.72081018       0.42696487       0.43540882       1.81818333       1.96787313       0.54080745       1.79928201       1.85416409       3.86716784       2.66873235       1.91133557       1.65729543
           1.86970467       1.76344825       2.04938566       0.43415902       1.91502872       1.94333878       3.66468971       3.39615978       3.24635954       3.17796261       1.97833727       0.90845463       0.43799720       2.67846667       0.75590697       1.89106947       1.88904019       0.47031543       0.43681259       1.57160443
           0.95755386       0.85389032       0.43727467       0.43534922       0.46612251       0.57476218       0.74183349       0.41074160       0.52017284       2.24940433       2.26306788       2.83137981       2.50853751       0.43433129       2.11668130       1.65711507       0.36600318       3.13907677       1.89656328       0.48794857
           0.87021751       0.26760064       1.97322375       1.86232488       0.53446295       2.28414158       1.82185803       1.95108187       2.10065958       1.94375350       2.66720326       0.74634805       1.84440948       1.84616095       2.98516629       2.16862134       2.69132724       0.32502349       0.37443222       0.60591022
           2.72493993       1.86220484       0.81300015       1.92610860       1.04626025       2.76676884       2.31755599       1.46356064       0.41002549       1.86804936       0.60468851       1.78211413       2.90905043       2.85771661       0.45163373       0.52744851       1.95017613       1.93466527       3.04609841       0.46138800
           2.02762309       1.85571379       1.87946485       0.70436488       1.72458516       1.92680489       1.86978168       1.18298664       2.25947430       2.66115944       0.69038797       2.87549382       2.21771540       1.17481804       1.98573935       2.19503507       2.76029677       2.73859576       1.07465411       1.81094661
           0.46047540       0.77420065       4.03148220       0.77062225       1.86294228       0.37338774       0.35881546       0.23484236       1.55345571       1.92122708       1.12657172       1.15798565       2.13696422       1.54668393       2.12321804       1.29647252       1.82879284       0.40337134       0.04599352       3.80278772