# File generated by Flopy version 3.9.1 on 02/12/2026 at 09:36:11.
BEGIN options
END options

BEGIN timing
  TDIS6  struc_caseA.tdis
END timing

BEGIN models
  gwf6  struc_caseA.nam  struc_casea
END models

BEGIN exchanges
END exchanges

BEGIN solutiongroup  1
  ims6  struc_caseA.ims  struc_casea
END solutiongroup  1

