# File generated by Flopy version 3.9.1 on 02/12/2026 at 09:36:15.
BEGIN options
  SAVE_FLOWS
END options

BEGIN dimensions
  MAXBOUND  87488
END dimensions

BEGIN period  1
  2 245 139 -1.55582245E-03
  2 245 140 -1.55582245E-03
  2 245 141 -1.55582245E-03
  2 246 137 -1.55582245E-03
  2 246 138 -1.55582245E-03
  2 246 139 -1.55582245E-03
  2 246 140 -1.55582245E-03
  2 247 137 -1.55582245E-03
  2 247 138 -1.55582245E-03
  2 247 139 -1.55582245E-03
  2 247 140 -1.55582245E-03
  2 248 126 -1.55582245E-03
  2 248 138 -1.55582245E-03
  2 248 139 -1.55582245E-03
  2 248 140 -1.55582245E-03
  2 249 126 -1.55582245E-03
  2 249 127 -1.55582245E-03
  2 249 138 -1.55582245E-03
  2 249 139 -1.55582245E-03
  2 249 140 -1.55582245E-03
  2 250 126 -1.55582245E-03
  2 250 127 -1.55582245E-03
  2 250 128 -1.55582245E-03
  2 250 137 -1.55582245E-03
  2 250 138 -1.55582245E-03
  2 250 139 -1.55582245E-03
  2 250 140 -1.55582245E-03
  2 250 141 -1.55582245E-03
  2 250 145 -1.55582245E-03
  2 250 146 -1.55582245E-03
  2 250 147 -1.55582245E-03
  2 251 126 -1.55582245E-03
  2 251 127 -1.55582245E-03
  2 251 128 -1.55582245E-03
  2 251 129 -1.55582245E-03
  2 251 136 -1.55582245E-03
  2 251 137 -1.55582245E-03
  2 251 138 -1.55582245E-03
  2 251 139 -1.55582245E-03
  2 251 140 -1.55582245E-03
  2 251 141 -1.55582245E-03
  2 251 144 -1.55582245E-03
  2 251 145 -1.55582245E-03
  2 251 146 -1.55582245E-03
  2 251 147 -1.55582245E-03
  2 252 126 -1.55582245E-03
  2 252 127 -1.55582245E-03
  2 252 128 -1.55582245E-03
  2 252 129 -1.55582245E-03
  2 252 130 -1.55582245E-03
  2 252 137 -1.55582245E-03
  2 252 138 -1.55582245E-03
  2 252 139 -1.55582245E-03
  2 252 140 -1.55582245E-03
  2 252 141 -1.55582245E-03
  2 252 142 -1.55582245E-03
  2 252 143 -1.55582245E-03
  2 252 144 -1.55582245E-03
  2 252 145 -1.55582245E-03
  2 252 146 -1.55582245E-03
  2 253 127 -1.55582245E-03
  2 253 128 -1.55582245E-03
  2 253 129 -1.55582245E-03
  2 253 130 -1.55582245E-03
  2 253 135 -1.55582245E-03
  2 253 136 -1.55582245E-03
  2 253 137 -1.55582245E-03
  2 253 138 -1.55582245E-03
  2 253 139 -1.55582245E-03
  2 253 140 -1.55582245E-03
  2 253 141 -1.55582245E-03
  2 253 142 -1.55582245E-03
  2 253 143 -1.55582245E-03
  2 253 144 -1.55582245E-03
  2 253 145 -1.55582245E-03
  2 253 146 -1.55582245E-03
  2 254 129 -1.55582245E-03
  2 254 130 -1.55582245E-03
  2 254 134 -1.55582245E-03
  2 254 135 -1.55582245E-03
  2 254 136 -1.55582245E-03
  2 254 137 -1.55582245E-03
  2 254 138 -1.55582245E-03
  2 254 139 -1.55582245E-03
  2 254 140 -1.55582245E-03
  2 254 141 -1.55582245E-03
  2 254 142 -1.55582245E-03
  2 254 143 -1.55582245E-03
  2 254 144 -1.55582245E-03
  2 254 145 -1.55582245E-03
  2 254 146 -1.55582245E-03
  2 254 147 -1.55582245E-03
  2 255 130 -1.55582245E-03
  2 255 131 -1.55582245E-03
  2 255 132 -1.55582245E-03
  2 255 133 -1.55582245E-03
  2 255 134 -1.55582245E-03
  2 255 135 -1.55582245E-03
  2 255 136 -1.55582245E-03
  2 255 137 -1.55582245E-03
  2 255 138 -1.55582245E-03
  2 255 139 -1.55582245E-03
  2 255 140 -1.55582245E-03
  2 255 141 -1.55582245E-03
  2 255 142 -1.55582245E-03
  2 255 143 -1.55582245E-03
  2 255 144 -1.55582245E-03
  2 255 145 -1.55582245E-03
  2 255 146 -1.55582245E-03
  2 255 147 -1.55582245E-03
  2 256 131 -1.55582245E-03
  2 256 132 -1.55582245E-03
  2 256 133 -1.55582245E-03
  2 256 134 -1.55582245E-03
  2 256 135 -1.55582245E-03
  2 256 136 -1.55582245E-03
  2 256 137 -1.55582245E-03
  2 256 138 -1.55582245E-03
  2 256 139 -1.55582245E-03
  2 256 140 -1.55582245E-03
  2 256 141 -1.55582245E-03
  2 256 142 -1.55582245E-03
  2 256 143 -1.55582245E-03
  2 256 144 -1.55582245E-03
  2 256 145 -1.55582245E-03
  2 256 146 -1.55582245E-03
  2 257 132 -1.55582245E-03
  2 257 133 -1.55582245E-03
  2 257 134 -1.55582245E-03
  2 257 135 -1.55582245E-03
  2 257 136 -1.55582245E-03
  2 257 137 -1.55582245E-03
  2 257 138 -1.55582245E-03
  2 257 139 -1.55582245E-03
  2 257 140 -1.55582245E-03
  2 257 141 -1.55582245E-03
  2 257 142 -1.55582245E-03
  2 257 143 -1.55582245E-03
  2 257 144 -1.55582245E-03
  2 258 132 -1.55582245E-03
  2 258 133 -1.55582245E-03
  2 258 134 -1.55582245E-03
  2 258 135 -1.55582245E-03
  2 258 136 -1.55582245E-03
  2 258 137 -1.55582245E-03
  2 258 138 -1.55582245E-03
  2 258 139 -1.55582245E-03
  2 258 140 -1.55582245E-03
  2 258 141 -1.55582245E-03
  2 258 142 -1.55582245E-03
  2 258 143 -1.55582245E-03
  2 258 144 -1.55582245E-03
  2 259 132 -1.55582245E-03
  2 259 133 -1.55582245E-03
  2 259 134 -1.55582245E-03
  2 259 135 -1.55582245E-03
  2 259 136 -1.55582245E-03
  2 259 137 -1.55582245E-03
  2 259 138 -1.55582245E-03
  2 259 139 -1.55582245E-03
  2 259 140 -1.55582245E-03
  2 259 141 -1.55582245E-03
  2 259 142 -1.55582245E-03
  2 259 143 -1.55582245E-03
  2 259 144 -1.55582245E-03
  2 259 145 -1.55582245E-03
  2 260 114 -1.55582245E-03
  2 260 132 -1.55582245E-03
  2 260 133 -1.55582245E-03
  2 260 134 -1.55582245E-03
  2 260 135 -1.55582245E-03
  2 260 136 -1.55582245E-03
  2 260 137 -1.55582245E-03
  2 260 138 -1.55582245E-03
  2 260 139 -1.55582245E-03
  2 260 140 -1.55582245E-03
  2 260 141 -1.55582245E-03
  2 260 142 -1.55582245E-03
  2 260 143 -1.55582245E-03
  2 260 144 -1.55582245E-03
  2 260 145 -1.55582245E-03
  2 261 115 -1.55582245E-03
  2 261 116 -1.55582245E-03
  2 261 117 -1.55582245E-03
  2 261 132 -1.55582245E-03
  2 261 133 -1.55582245E-03
  2 261 134 -1.55582245E-03
  2 261 135 -1.55582245E-03
  2 261 136 -1.55582245E-03
  2 261 137 -1.55582245E-03
  2 261 138 -1.55582245E-03
  2 261 139 -1.55582245E-03
  2 261 140 -1.55582245E-03
  2 261 141 -1.55582245E-03
  2 261 142 -1.55582245E-03
  2 261 143 -1.55582245E-03
  2 261 144 -1.55582245E-03
  2 261 145 -1.55582245E-03
  2 262 115 -1.55582245E-03
  2 262 116 -1.55582245E-03
  2 262 117 -1.55582245E-03
  2 262 118 -1.55582245E-03
  2 262 119 -1.55582245E-03
  2 262 120 -1.55582245E-03
  2 262 121 -1.55582245E-03
  2 262 122 -1.55582245E-03
  2 262 132 -1.55582245E-03
  2 262 133 -1.55582245E-03
  2 262 134 -1.55582245E-03
  2 262 135 -1.55582245E-03
  2 262 136 -1.55582245E-03
  2 262 137 -1.55582245E-03
  2 262 138 -1.55582245E-03
  2 262 139 -1.55582245E-03
  2 262 140 -1.55582245E-03
  2 262 141 -1.55582245E-03
  2 262 142 -1.55582245E-03
  2 262 143 -1.55582245E-03
  2 262 144 -1.55582245E-03
  2 262 145 -1.55582245E-03
  2 263 115 -1.55582245E-03
  2 263 116 -1.55582245E-03
  2 263 117 -1.55582245E-03
  2 263 118 -1.55582245E-03
  2 263 119 -1.55582245E-03
  2 263 120 -1.55582245E-03
  2 263 121 -1.55582245E-03
  2 263 122 -1.55582245E-03
  2 263 128 -1.55582245E-03
  2 263 129 -1.55582245E-03
  2 263 131 -1.55582245E-03
  2 263 132 -1.55582245E-03
  2 263 133 -1.55582245E-03
  2 263 134 -1.55582245E-03
  2 263 135 -1.55582245E-03
  2 263 136 -1.55582245E-03
  2 263 137 -1.55582245E-03
  2 263 138 -1.55582245E-03
  2 263 139 -1.55582245E-03
  2 263 140 -1.55582245E-03
  2 263 141 -1.55582245E-03
  2 263 142 -1.55582245E-03
  2 263 143 -1.55582245E-03
  2 263 144 -1.55582245E-03
  2 264 115 -1.55582245E-03
  2 264 116 -1.55582245E-03
  2 264 117 -1.55582245E-03
  2 264 118 -1.55582245E-03
  2 264 119 -1.55582245E-03
  2 264 120 -1.55582245E-03
  2 264 121 -1.55582245E-03
  2 264 122 -1.55582245E-03
  2 264 128 -1.55582245E-03
  2 264 129 -1.55582245E-03
  2 264 130 -1.55582245E-03
  2 264 131 -1.55582245E-03
  2 264 132 -1.55582245E-03
  2 264 133 -1.55582245E-03
  2 264 134 -1.55582245E-03
  2 264 135 -1.55582245E-03
  2 264 136 -1.55582245E-03
  2 264 137 -1.55582245E-03
  2 264 138 -1.55582245E-03
  2 264 139 -1.55582245E-03
  2 264 140 -1.55582245E-03
  2 264 141 -1.55582245E-03
  2 264 142 -1.55582245E-03
  2 264 143 -1.55582245E-03
  2 264 144 -1.55582245E-03
  2 265 116 -1.55582245E-03
  2 265 117 -1.55582245E-03
  2 265 118 -1.55582245E-03
  2 265 119 -1.55582245E-03
  2 265 120 -1.55582245E-03
  2 265 121 -1.55582245E-03
  2 265 122 -1.55582245E-03
  2 265 123 -1.55582245E-03
  2 265 124 -1.55582245E-03
  2 265 125 -1.55582245E-03
  2 265 128 -1.55582245E-03
  2 265 129 -1.55582245E-03
  2 265 130 -1.55582245E-03
  2 265 131 -1.55582245E-03
  2 265 132 -1.55582245E-03
  2 265 133 -1.55582245E-03
  2 265 134 -1.55582245E-03
  2 265 135 -1.55582245E-03
  2 265 136 -1.55582245E-03
  2 265 137 -1.55582245E-03
  2 265 138 -1.55582245E-03
  2 265 139 -1.55582245E-03
  2 265 140 -1.55582245E-03
  2 265 141 -1.55582245E-03
  2 265 142 -1.55582245E-03
  2 265 143 -1.55582245E-03
  2 265 144 -1.55582245E-03
  2 266 116 -1.55582245E-03
  2 266 117 -1.55582245E-03
  2 266 118 -1.55582245E-03
  2 266 119 -1.55582245E-03
  2 266 120 -1.55582245E-03
  2 266 121 -1.55582245E-03
  2 266 122 -1.55582245E-03
  2 266 123 -1.55582245E-03
  2 266 124 -1.55582245E-03
  2 266 125 -1.55582245E-03
  2 266 126 -1.55582245E-03
  2 266 127 -1.55582245E-03
  2 266 128 -1.55582245E-03
  2 266 129 -1.55582245E-03
  2 266 130 -1.55582245E-03
  2 266 131 -1.55582245E-03
  2 266 132 -1.55582245E-03
  2 266 133 -1.55582245E-03
  2 266 134 -1.55582245E-03
  2 266 135 -1.55582245E-03
  2 266 136 -1.55582245E-03
  2 266 137 -1.55582245E-03
  2 266 138 -1.55582245E-03
  2 266 139 -1.55582245E-03
  2 266 140 -1.55582245E-03
  2 266 141 -1.55582245E-03
  2 266 142 -1.55582245E-03
  2 266 143 -1.55582245E-03
  2 266 144 -1.55582245E-03
  2 267 118 -1.55582245E-03
  2 267 119 -1.55582245E-03
  2 267 120 -1.55582245E-03
  2 267 121 -1.55582245E-03
  2 267 122 -1.55582245E-03
  2 267 123 -1.55582245E-03
  2 267 124 -1.55582245E-03
  2 267 125 -1.55582245E-03
  2 267 126 -1.55582245E-03
  2 267 127 -1.55582245E-03
  2 267 128 -1.55582245E-03
  2 267 129 -1.55582245E-03
  2 267 130 -1.55582245E-03
  2 267 131 -1.55582245E-03
  2 267 132 -1.55582245E-03
  2 267 133 -1.55582245E-03
  2 267 134 -1.55582245E-03
  2 267 135 -1.55582245E-03
  2 267 136 -1.55582245E-03
  2 267 137 -1.55582245E-03
  2 267 138 -1.55582245E-03
  2 267 139 -1.55582245E-03
  2 267 140 -1.55582245E-03
  2 267 141 -1.55582245E-03
  2 267 142 -1.55582245E-03
  2 267 143 -1.55582245E-03
  2 268 118 -1.55582245E-03
  2 268 119 -1.55582245E-03
  2 268 120 -1.55582245E-03
  2 268 121 -1.55582245E-03
  2 268 122 -1.55582245E-03
  2 268 123 -1.55582245E-03
  2 268 124 -1.55582245E-03
  2 268 125 -1.55582245E-03
  2 268 126 -1.55582245E-03
  2 268 127 -1.55582245E-03
  2 268 128 -1.55582245E-03
  2 268 129 -1.55582245E-03
  2 268 130 -1.55582245E-03
  2 268 131 -1.55582245E-03
  2 268 132 -1.55582245E-03
  2 268 133 -1.55582245E-03
  2 268 134 -1.55582245E-03
  2 268 135 -1.55582245E-03
  2 268 136 -1.55582245E-03
  2 268 137 -1.55582245E-03
  2 268 138 -1.55582245E-03
  2 268 139 -1.55582245E-03
  2 268 140 -1.55582245E-03
  2 268 141 -1.55582245E-03
  2 268 142 -1.55582245E-03
  2 268 143 -1.55582245E-03
  2 269 118 -1.55582245E-03
  2 269 119 -1.55582245E-03
  2 269 120 -1.55582245E-03
  2 269 121 -1.55582245E-03
  2 269 122 -1.55582245E-03
  2 269 123 -1.55582245E-03
  2 269 124 -1.55582245E-03
  2 269 125 -1.55582245E-03
  2 269 126 -1.55582245E-03
  2 269 127 -1.55582245E-03
  2 269 128 -1.55582245E-03
  2 269 129 -1.55582245E-03
  2 269 130 -1.55582245E-03
  2 269 131 -1.55582245E-03
  2 269 132 -1.55582245E-03
  2 269 133 -1.55582245E-03
  2 269 134 -1.55582245E-03
  2 269 135 -1.55582245E-03
  2 269 136 -1.55582245E-03
  2 269 137 -1.55582245E-03
  2 269 138 -1.55582245E-03
  2 269 139 -1.55582245E-03
  2 269 140 -1.55582245E-03
  2 269 141 -1.55582245E-03
  2 269 142 -1.55582245E-03
  2 269 143 -1.55582245E-03
  2 270 118 -1.55582245E-03
  2 270 119 -1.55582245E-03
  2 270 120 -1.55582245E-03
  2 270 121 -1.55582245E-03
  2 270 122 -1.55582245E-03
  2 270 123 -1.55582245E-03
  2 270 124 -1.55582245E-03
  2 270 125 -1.55582245E-03
  2 270 126 -1.55582245E-03
  2 270 127 -1.55582245E-03
  2 270 128 -1.55582245E-03
  2 270 129 -1.55582245E-03
  2 270 130 -1.55582245E-03
  2 270 131 -1.55582245E-03
  2 270 132 -1.55582245E-03
  2 270 133 -1.55582245E-03
  2 270 134 -1.55582245E-03
  2 270 135 -1.55582245E-03
  2 270 136 -1.55582245E-03
  2 270 137 -1.55582245E-03
  2 270 138 -1.55582245E-03
  2 270 139 -1.55582245E-03
  2 270 140 -1.55582245E-03
  2 270 141 -1.55582245E-03
  2 270 142 -1.55582245E-03
  2 270 143 -1.55582245E-03
  2 271 117 -1.55582245E-03
  2 271 118 -1.55582245E-03
  2 271 119 -1.55582245E-03
  2 271 120 -1.55582245E-03
  2 271 121 -1.55582245E-03
  2 271 122 -1.55582245E-03
  2 271 123 -1.55582245E-03
  2 271 124 -1.55582245E-03
  2 271 125 -1.55582245E-03
  2 271 126 -1.55582245E-03
  2 271 127 -1.55582245E-03
  2 271 128 -1.55582245E-03
  2 271 129 -1.55582245E-03
  2 271 130 -1.55582245E-03
  2 271 131 -1.55582245E-03
  2 271 132 -1.55582245E-03
  2 271 133 -1.55582245E-03
  2 271 134 -1.55582245E-03
  2 271 135 -1.55582245E-03
  2 271 136 -1.55582245E-03
  2 271 137 -1.55582245E-03
  2 271 138 -1.55582245E-03
  2 271 139 -1.55582245E-03
  2 271 140 -1.55582245E-03
  2 271 141 -1.55582245E-03
  2 271 142 -1.55582245E-03
  2 271 143 -1.55582245E-03
  2 272 116 -1.55582245E-03
  2 272 117 -1.55582245E-03
  2 272 118 -1.55582245E-03
  2 272 119 -1.55582245E-03
  2 272 120 -1.55582245E-03
  2 272 121 -1.55582245E-03
  2 272 122 -1.55582245E-03
  2 272 123 -1.55582245E-03
  2 272 124 -1.55582245E-03
  2 272 125 -1.55582245E-03
  2 272 126 -1.55582245E-03
  2 272 127 -1.55582245E-03
  2 272 128 -1.55582245E-03
  2 272 129 -1.55582245E-03
  2 272 130 -1.55582245E-03
  2 272 131 -1.55582245E-03
  2 272 132 -1.55582245E-03
  2 272 133 -1.55582245E-03
  2 272 134 -1.55582245E-03
  2 272 135 -1.55582245E-03
  2 272 136 -1.55582245E-03
  2 272 137 -1.55582245E-03
  2 272 138 -1.55582245E-03
  2 272 139 -1.55582245E-03
  2 272 140 -1.55582245E-03
  2 272 141 -1.55582245E-03
  2 272 142 -1.55582245E-03
  2 272 143 -1.55582245E-03
  2 273 104 -1.55582245E-03
  2 273 105 -1.55582245E-03
  2 273 106 -1.55582245E-03
  2 273 115 -1.55582245E-03
  2 273 116 -1.55582245E-03
  2 273 117 -1.55582245E-03
  2 273 118 -1.55582245E-03
  2 273 119 -1.55582245E-03
  2 273 120 -1.55582245E-03
  2 273 121 -1.55582245E-03
  2 273 122 -1.55582245E-03
  2 273 123 -1.55582245E-03
  2 273 124 -1.55582245E-03
  2 273 125 -1.55582245E-03
  2 273 126 -1.55582245E-03
  2 273 127 -1.55582245E-03
  2 273 128 -1.55582245E-03
  2 273 129 -1.55582245E-03
  2 273 130 -1.55582245E-03
  2 273 131 -1.55582245E-03
  2 273 132 -1.55582245E-03
  2 273 133 -1.55582245E-03
  2 273 134 -1.55582245E-03
  2 273 135 -1.55582245E-03
  2 273 136 -1.55582245E-03
  2 273 137 -1.55582245E-03
  2 273 138 -1.55582245E-03
  2 273 139 -1.55582245E-03
  2 273 140 -1.55582245E-03
  2 273 141 -1.55582245E-03
  2 273 142 -1.55582245E-03
  2 273 143 -1.55582245E-03
  2 274 101 -1.55582245E-03
  2 274 102 -1.55582245E-03
  2 274 103 -1.55582245E-03
  2 274 104 -1.55582245E-03
  2 274 105 -1.55582245E-03
  2 274 106 -1.55582245E-03
  2 274 107 -1.55582245E-03
  2 274 114 -1.55582245E-03
  2 274 115 -1.55582245E-03
  2 274 116 -1.55582245E-03
  2 274 117 -1.55582245E-03
  2 274 118 -1.55582245E-03
  2 274 119 -1.55582245E-03
  2 274 120 -1.55582245E-03
  2 274 121 -1.55582245E-03
  2 274 122 -1.55582245E-03
  2 274 123 -1.55582245E-03
  2 274 124 -1.55582245E-03
  2 274 125 -1.55582245E-03
  2 274 126 -1.55582245E-03
  2 274 127 -1.55582245E-03
  2 274 128 -1.55582245E-03
  2 274 129 -1.55582245E-03
  2 274 130 -1.55582245E-03
  2 274 131 -1.55582245E-03
  2 274 132 -1.55582245E-03
  2 274 133 -1.55582245E-03
  2 274 134 -1.55582245E-03
  2 274 135 -1.55582245E-03
  2 274 136 -1.55582245E-03
  2 274 137 -1.55582245E-03
  2 274 138 -1.55582245E-03
  2 274 139 -1.55582245E-03
  2 274 140 -1.55582245E-03
  2 274 141 -1.55582245E-03
  2 274 142 -1.55582245E-03
  2 275 101 -1.55582245E-03
  2 275 102 -1.55582245E-03
  2 275 103 -1.55582245E-03
  2 275 104 -1.55582245E-03
  2 275 105 -1.55582245E-03
  2 275 106 -1.55582245E-03
  2 275 107 -1.55582245E-03
  2 275 108 -1.55582245E-03
  2 275 113 -1.55582245E-03
  2 275 114 -1.55582245E-03
  2 275 115 -1.55582245E-03
  2 275 116 -1.55582245E-03
  2 275 117 -1.55582245E-03
  2 275 118 -1.55582245E-03
  2 275 119 -1.55582245E-03
  2 275 120 -1.55582245E-03
  2 275 121 -1.55582245E-03
  2 275 122 -1.55582245E-03
  2 275 123 -1.55582245E-03
  2 275 124 -1.55582245E-03
  2 275 125 -1.55582245E-03
  2 275 126 -1.55582245E-03
  2 275 127 -1.55582245E-03
  2 275 128 -1.55582245E-03
  2 275 129 -1.55582245E-03
  2 275 130 -1.55582245E-03
  2 275 131 -1.55582245E-03
  2 275 132 -1.55582245E-03
  2 275 133 -1.55582245E-03
  2 275 134 -1.55582245E-03
  2 275 135 -1.55582245E-03
  2 275 136 -1.55582245E-03
  2 275 137 -1.55582245E-03
  2 275 138 -1.55582245E-03
  2 275 139 -1.55582245E-03
  2 275 140 -1.55582245E-03
  2 275 141 -1.55582245E-03
  2 275 142 -1.55582245E-03
  2 275 143 -1.55582245E-03
  2 275 144 -1.55582245E-03
  2 275 145 -1.55582245E-03
  2 276 100 -1.55582245E-03
  2 276 101 -1.55582245E-03
  2 276 102 -1.55582245E-03
  2 276 103 -1.55582245E-03
  2 276 104 -1.55582245E-03
  2 276 105 -1.55582245E-03
  2 276 106 -1.55582245E-03
  2 276 107 -1.55582245E-03
  2 276 112 -1.55582245E-03
  2 276 113 -1.55582245E-03
  2 276 114 -1.55582245E-03
  2 276 115 -1.55582245E-03
  2 276 116 -1.55582245E-03
  2 276 117 -1.55582245E-03
  2 276 118 -1.55582245E-03
  2 276 119 -1.55582245E-03
  2 276 120 -1.55582245E-03
  2 276 121 -1.55582245E-03
  2 276 122 -1.55582245E-03
  2 276 123 -1.55582245E-03
  2 276 124 -1.55582245E-03
  2 276 125 -1.55582245E-03
  2 276 126 -1.55582245E-03
  2 276 127 -1.55582245E-03
  2 276 128 -1.55582245E-03
  2 276 129 -1.55582245E-03
  2 276 130 -1.55582245E-03
  2 276 131 -1.55582245E-03
  2 276 132 -1.55582245E-03
  2 276 133 -1.55582245E-03
  2 276 134 -1.55582245E-03
  2 276 135 -1.55582245E-03
  2 276 136 -1.55582245E-03
  2 276 137 -1.55582245E-03
  2 276 138 -1.55582245E-03
  2 276 139 -1.55582245E-03
  2 276 140 -1.55582245E-03
  2 276 141 -1.55582245E-03
  2 276 142 -1.55582245E-03
  2 276 143 -1.55582245E-03
  2 276 144 -1.55582245E-03
  2 276 145 -1.55582245E-03
  2 277 94 -1.55582245E-03
  2 277 95 -1.55582245E-03
  2 277 96 -1.55582245E-03
  2 277 97 -1.55582245E-03
  2 277 98 -1.55582245E-03
  2 277 99 -1.55582245E-03
  2 277 100 -1.55582245E-03
  2 277 101 -1.55582245E-03
  2 277 102 -1.55582245E-03
  2 277 103 -1.55582245E-03
  2 277 104 -1.55582245E-03
  2 277 105 -1.55582245E-03
  2 277 106 -1.55582245E-03
  2 277 107 -1.55582245E-03
  2 277 112 -1.55582245E-03
  2 277 113 -1.55582245E-03
  2 277 114 -1.55582245E-03
  2 277 115 -1.55582245E-03
  2 277 116 -1.55582245E-03
  2 277 117 -1.55582245E-03
  2 277 118 -1.55582245E-03
  2 277 119 -1.55582245E-03
  2 277 120 -1.55582245E-03
  2 277 121 -1.55582245E-03
  2 277 122 -1.55582245E-03
  2 277 123 -1.55582245E-03
  2 277 124 -1.55582245E-03
  2 277 125 -1.55582245E-03
  2 277 126 -1.55582245E-03
  2 277 127 -1.55582245E-03
  2 277 128 -1.55582245E-03
  2 277 129 -1.55582245E-03
  2 277 130 -1.55582245E-03
  2 277 131 -1.55582245E-03
  2 277 132 -1.55582245E-03
  2 277 133 -1.55582245E-03
  2 277 134 -1.55582245E-03
  2 277 135 -1.55582245E-03
  2 277 136 -1.55582245E-03
  2 277 137 -1.55582245E-03
  2 277 138 -1.55582245E-03
  2 277 139 -1.55582245E-03
  2 277 140 -1.55582245E-03
  2 277 141 -1.55582245E-03
  2 277 142 -1.55582245E-03
  2 277 143 -1.55582245E-03
  2 277 144 -1.55582245E-03
  2 277 145 -1.55582245E-03
  2 278 94 -1.55582245E-03
  2 278 95 -1.55582245E-03
  2 278 96 -1.55582245E-03
  2 278 97 -1.55582245E-03
  2 278 98 -1.55582245E-03
  2 278 99 -1.55582245E-03
  2 278 100 -1.55582245E-03
  2 278 101 -1.55582245E-03
  2 278 102 -1.55582245E-03
  2 278 103 -1.55582245E-03
  2 278 104 -1.55582245E-03
  2 278 105 -1.55582245E-03
  2 278 106 -1.55582245E-03
  2 278 112 -1.55582245E-03
  2 278 113 -1.55582245E-03
  2 278 114 -1.55582245E-03
  2 278 115 -1.55582245E-03
  2 278 116 -1.55582245E-03
  2 278 117 -1.55582245E-03
  2 278 118 -1.55582245E-03
  2 278 119 -1.55582245E-03
  2 278 120 -1.55582245E-03
  2 278 121 -1.55582245E-03
  2 278 122 -1.55582245E-03
  2 278 123 -1.55582245E-03
  2 278 124 -1.55582245E-03
  2 278 125 -1.55582245E-03
  2 278 126 -1.55582245E-03
  2 278 127 -1.55582245E-03
  2 278 128 -1.55582245E-03
  2 278 129 -1.55582245E-03
  2 278 130 -1.55582245E-03
  2 278 131 -1.55582245E-03
  2 278 132 -1.55582245E-03
  2 278 133 -1.55582245E-03
  2 278 134 -1.55582245E-03
  2 278 135 -1.55582245E-03
  2 278 136 -1.55582245E-03
  2 278 137 -1.55582245E-03
  2 278 138 -1.55582245E-03
  2 278 139 -1.55582245E-03
  2 278 140 -1.55582245E-03
  2 278 141 -1.55582245E-03
  2 279 95 -1.55582245E-03
  2 279 96 -1.55582245E-03
  2 279 97 -1.55582245E-03
  2 279 98 -1.55582245E-03
  2 279 99 -1.55582245E-03
  2 279 100 -1.55582245E-03
  2 279 101 -1.55582245E-03
  2 279 102 -1.55582245E-03
  2 279 103 -1.55582245E-03
  2 279 104 -1.55582245E-03
  2 279 105 -1.55582245E-03
  2 279 106 -1.55582245E-03
  2 279 112 -1.55582245E-03
  2 279 113 -1.55582245E-03
  2 279 114 -1.55582245E-03
  2 279 115 -1.55582245E-03
  2 279 116 -1.55582245E-03
  2 279 117 -1.55582245E-03
  2 279 118 -1.55582245E-03
  2 279 119 -1.55582245E-03
  2 279 120 -1.55582245E-03
  2 279 121 -1.55582245E-03
  2 279 122 -1.55582245E-03
  2 279 123 -1.55582245E-03
  2 279 124 -1.55582245E-03
  2 279 125 -1.55582245E-03
  2 279 126 -1.55582245E-03
  2 279 127 -1.55582245E-03
  2 279 128 -1.55582245E-03
  2 279 129 -1.55582245E-03
  2 279 130 -1.55582245E-03
  2 279 131 -1.55582245E-03
  2 279 132 -1.55582245E-03
  2 279 133 -1.55582245E-03
  2 279 134 -1.55582245E-03
  2 279 135 -1.55582245E-03
  2 279 136 -1.55582245E-03
  2 279 137 -1.55582245E-03
  2 279 138 -1.55582245E-03
  2 279 139 -1.55582245E-03
  2 279 140 -1.55582245E-03
  2 279 141 -1.55582245E-03
  2 280 96 -1.55582245E-03
  2 280 97 -1.55582245E-03
  2 280 98 -1.55582245E-03
  2 280 99 -1.55582245E-03
  2 280 100 -1.55582245E-03
  2 280 101 -1.55582245E-03
  2 280 102 -1.55582245E-03
  2 280 103 -1.55582245E-03
  2 280 104 -1.55582245E-03
  2 280 105 -1.55582245E-03
  2 280 112 -1.55582245E-03
  2 280 113 -1.55582245E-03
  2 280 114 -1.55582245E-03
  2 280 115 -1.55582245E-03
  2 280 116 -1.55582245E-03
  2 280 117 -1.55582245E-03
  2 280 118 -1.55582245E-03
  2 280 119 -1.55582245E-03
  2 280 120 -1.55582245E-03
  2 280 121 -1.55582245E-03
  2 280 122 -1.55582245E-03
  2 280 123 -1.55582245E-03
  2 280 124 -1.55582245E-03
  2 280 125 -1.55582245E-03
  2 280 126 -1.55582245E-03
  2 280 127 -1.55582245E-03
  2 280 128 -1.55582245E-03
  2 280 129 -1.55582245E-03
  2 280 130 -1.55582245E-03
  2 280 131 -1.55582245E-03
  2 280 132 -1.55582245E-03
  2 280 133 -1.55582245E-03
  2 280 134 -1.55582245E-03
  2 280 135 -1.55582245E-03
  2 280 136 -1.55582245E-03
  2 280 137 -1.55582245E-03
  2 280 138 -1.55582245E-03
  2 280 139 -1.55582245E-03
  2 281 96 -1.55582245E-03
  2 281 97 -1.55582245E-03
  2 281 98 -1.55582245E-03
  2 281 99 -1.55582245E-03
  2 281 100 -1.55582245E-03
  2 281 101 -1.55582245E-03
  2 281 102 -1.55582245E-03
  2 281 103 -1.55582245E-03
  2 281 104 -1.55582245E-03
  2 281 105 -1.55582245E-03
  2 281 106 -1.55582245E-03
  2 281 107 -1.55582245E-03
  2 281 112 -1.55582245E-03
  2 281 113 -1.55582245E-03
  2 281 114 -1.55582245E-03
  2 281 115 -1.55582245E-03
  2 281 116 -1.55582245E-03
  2 281 117 -1.55582245E-03
  2 281 118 -1.55582245E-03
  2 281 119 -1.55582245E-03
  2 281 120 -1.55582245E-03
  2 281 121 -1.55582245E-03
  2 281 122 -1.55582245E-03
  2 281 123 -1.55582245E-03
  2 281 124 -1.55582245E-03
  2 281 125 -1.55582245E-03
  2 281 126 -1.55582245E-03
  2 281 127 -1.55582245E-03
  2 281 128 -1.55582245E-03
  2 281 129 -1.55582245E-03
  2 281 130 -1.55582245E-03
  2 281 131 -1.55582245E-03
  2 281 132 -1.55582245E-03
  2 281 133 -1.55582245E-03
  2 281 134 -1.55582245E-03
  2 281 135 -1.55582245E-03
  2 281 136 -1.55582245E-03
  2 281 137 -1.55582245E-03
  2 281 138 -1.55582245E-03
  2 282 97 -1.55582245E-03
  2 282 98 -1.55582245E-03
  2 282 99 -1.55582245E-03
  2 282 100 -1.55582245E-03
  2 282 101 -1.55582245E-03
  2 282 102 -1.55582245E-03
  2 282 103 -1.55582245E-03
  2 282 104 -1.55582245E-03
  2 282 105 -1.55582245E-03
  2 282 106 -1.55582245E-03
  2 282 107 -1.55582245E-03
  2 282 108 -1.55582245E-03
  2 282 109 -1.55582245E-03
  2 282 111 -1.55582245E-03
  2 282 112 -1.55582245E-03
  2 282 113 -1.55582245E-03
  2 282 114 -1.55582245E-03
  2 282 115 -1.55582245E-03
  2 282 116 -1.55582245E-03
  2 282 117 -1.55582245E-03
  2 282 118 -1.55582245E-03
  2 282 119 -1.55582245E-03
  2 282 120 -1.55582245E-03
  2 282 121 -1.55582245E-03
  2 282 122 -1.55582245E-03
  2 282 123 -1.55582245E-03
  2 282 124 -1.55582245E-03
  2 282 125 -1.55582245E-03
  2 282 126 -1.55582245E-03
  2 282 127 -1.55582245E-03
  2 282 128 -1.55582245E-03
  2 282 129 -1.55582245E-03
  2 282 130 -1.55582245E-03
  2 282 131 -1.55582245E-03
  2 282 132 -1.55582245E-03
  2 282 133 -1.55582245E-03
  2 282 134 -1.55582245E-03
  2 282 135 -1.55582245E-03
  2 282 136 -1.55582245E-03
  2 282 137 -1.55582245E-03
  2 282 138 -1.55582245E-03
  2 283 97 -1.55582245E-03
  2 283 98 -1.55582245E-03
  2 283 99 -1.55582245E-03
  2 283 100 -1.55582245E-03
  2 283 101 -1.55582245E-03
  2 283 102 -1.55582245E-03
  2 283 103 -1.55582245E-03
  2 283 104 -1.55582245E-03
  2 283 105 -1.55582245E-03
  2 283 106 -1.55582245E-03
  2 283 107 -1.55582245E-03
  2 283 108 -1.55582245E-03
  2 283 109 -1.55582245E-03
  2 283 110 -1.55582245E-03
  2 283 111 -1.55582245E-03
  2 283 112 -1.55582245E-03
  2 283 113 -1.55582245E-03
  2 283 114 -1.55582245E-03
  2 283 115 -1.55582245E-03
  2 283 116 -1.55582245E-03
  2 283 117 -1.55582245E-03
  2 283 118 -1.55582245E-03
  2 283 119 -1.55582245E-03
  2 283 120 -1.55582245E-03
  2 283 121 -1.55582245E-03
  2 283 122 -1.55582245E-03
  2 283 123 -1.55582245E-03
  2 283 124 -1.55582245E-03
  2 283 125 -1.55582245E-03
  2 283 126 -1.55582245E-03
  2 283 127 -1.55582245E-03
  2 283 128 -1.55582245E-03
  2 283 129 -1.55582245E-03
  2 283 130 -1.55582245E-03
  2 283 131 -1.55582245E-03
  2 283 132 -1.55582245E-03
  2 283 133 -1.55582245E-03
  2 283 134 -1.55582245E-03
  2 283 135 -1.55582245E-03
  2 283 136 -1.55582245E-03
  2 283 137 -1.55582245E-03
  2 283 138 -1.55582245E-03
  2 283 139 -1.55582245E-03
  2 284 98 -1.55582245E-03
  2 284 99 -1.55582245E-03
  2 284 100 -1.55582245E-03
  2 284 101 -1.55582245E-03
  2 284 102 -1.55582245E-03
  2 284 103 -1.55582245E-03
  2 284 104 -1.55582245E-03
  2 284 105 -1.55582245E-03
  2 284 106 -1.55582245E-03
  2 284 107 -1.55582245E-03
  2 284 108 -1.55582245E-03
  2 284 109 -1.55582245E-03
  2 284 110 -1.55582245E-03
  2 284 111 -1.55582245E-03
  2 284 112 -1.55582245E-03
  2 284 113 -1.55582245E-03
  2 284 114 -1.55582245E-03
  2 284 115 -1.55582245E-03
  2 284 116 -1.55582245E-03
  2 284 117 -1.55582245E-03
  2 284 118 -1.55582245E-03
  2 284 119 -1.55582245E-03
  2 284 120 -1.55582245E-03
  2 284 121 -1.55582245E-03
  2 284 122 -1.55582245E-03
  2 284 123 -1.55582245E-03
  2 284 124 -1.55582245E-03
  2 284 125 -1.55582245E-03
  2 284 126 -1.55582245E-03
  2 284 127 -1.55582245E-03
  2 284 128 -1.55582245E-03
  2 284 129 -1.55582245E-03
  2 284 130 -1.55582245E-03
  2 284 131 -1.55582245E-03
  2 284 132 -1.55582245E-03
  2 284 133 -1.55582245E-03
  2 284 134 -1.55582245E-03
  2 284 135 -1.55582245E-03
  2 284 136 -1.55582245E-03
  2 284 137 -1.55582245E-03
  2 284 138 -1.55582245E-03
  2 284 139 -1.55582245E-03
  2 285 99 -1.55582245E-03
  2 285 100 -1.55582245E-03
  2 285 101 -1.55582245E-03
  2 285 102 -1.55582245E-03
  2 285 103 -1.55582245E-03
  2 285 104 -1.55582245E-03
  2 285 105 -1.55582245E-03
  2 285 106 -1.55582245E-03
  2 285 107 -1.55582245E-03
  2 285 108 -1.55582245E-03
  2 285 109 -1.55582245E-03
  2 285 110 -1.55582245E-03
  2 285 111 -1.55582245E-03
  2 285 112 -1.55582245E-03
  2 285 113 -1.55582245E-03
  2 285 114 -1.55582245E-03
  2 285 115 -1.55582245E-03
  2 285 116 -1.55582245E-03
  2 285 117 -1.55582245E-03
  2 285 118 -1.55582245E-03
  2 285 119 -1.55582245E-03
  2 285 120 -1.55582245E-03
  2 285 121 -1.55582245E-03
  2 285 122 -1.55582245E-03
  2 285 123 -1.55582245E-03
  2 285 124 -1.55582245E-03
  2 285 125 -1.55582245E-03
  2 285 126 -1.55582245E-03
  2 285 127 -1.55582245E-03
  2 285 128 -1.55582245E-03
  2 285 129 -1.55582245E-03
  2 285 130 -1.55582245E-03
  2 285 131 -1.55582245E-03
  2 285 132 -1.55582245E-03
  2 285 133 -1.55582245E-03
  2 285 134 -1.55582245E-03
  2 285 135 -1.55582245E-03
  2 285 136 -1.55582245E-03
  2 285 137 -1.55582245E-03
  2 285 138 -1.55582245E-03
  2 285 139 -1.55582245E-03
  2 285 140 -1.55582245E-03
  2 285 141 -1.55582245E-03
  2 286 99 -1.55582245E-03
  2 286 100 -1.55582245E-03
  2 286 101 -1.55582245E-03
  2 286 102 -1.55582245E-03
  2 286 103 -1.55582245E-03
  2 286 104 -1.55582245E-03
  2 286 105 -1.55582245E-03
  2 286 106 -1.55582245E-03
  2 286 107 -1.55582245E-03
  2 286 108 -1.55582245E-03
  2 286 109 -1.55582245E-03
  2 286 110 -1.55582245E-03
  2 286 111 -1.55582245E-03
  2 286 112 -1.55582245E-03
  2 286 113 -1.55582245E-03
  2 286 114 -1.55582245E-03
  2 286 115 -1.55582245E-03
  2 286 116 -1.55582245E-03
  2 286 117 -1.55582245E-03
  2 286 118 -1.55582245E-03
  2 286 119 -1.55582245E-03
  2 286 120 -1.55582245E-03
  2 286 121 -1.55582245E-03
  2 286 122 -1.55582245E-03
  2 286 123 -1.55582245E-03
  2 286 124 -1.55582245E-03
  2 286 125 -1.55582245E-03
  2 286 126 -1.55582245E-03
  2 286 127 -1.55582245E-03
  2 286 128 -1.55582245E-03
  2 286 129 -1.55582245E-03
  2 286 130 -1.55582245E-03
  2 286 131 -1.55582245E-03
  2 286 132 -1.55582245E-03
  2 286 133 -1.55582245E-03
  2 286 134 -1.55582245E-03
  2 286 135 -1.55582245E-03
  2 286 136 -1.55582245E-03
  2 286 137 -1.55582245E-03
  2 286 138 -1.55582245E-03
  2 286 139 -1.55582245E-03
  2 286 140 -1.55582245E-03
  2 286 141 -1.55582245E-03
  2 286 142 -1.55582245E-03
  2 286 143 -1.55582245E-03
  2 287 100 -1.55582245E-03
  2 287 101 -1.55582245E-03
  2 287 102 -1.55582245E-03
  2 287 103 -1.55582245E-03
  2 287 104 -1.55582245E-03
  2 287 105 -1.55582245E-03
  2 287 106 -1.55582245E-03