# File generated by Flopy version 3.9.1 on 02/12/2026 at 09:36:19.
BEGIN options
  BUDGET  FILEOUT  struc_caseA.cbc
  HEAD  FILEOUT  struc_caseA.hds
END options

BEGIN period  1
  SAVE  head  last
  SAVE  budget  last
  PRINT  budget  last
END period  1

