# File generated by Flopy version 3.9.1 on 02/12/2026 at 09:36:11.
BEGIN options
END options

BEGIN packages
  dis6  struc_caseA.dis  dis
  ic6  struc_caseA.ic  ic
  chd6  struc_caseA.chd  chd
  npf6  struc_caseA.npf  npf
  wel6  struc_caseA.wel  well_package
  rch6  struc_caseA.rch  rch
  evt6  struc_caseA.evt  evt
  oc6  struc_caseA.oc  oc
END packages

