# File generated by Flopy version 3.9.1 on 02/09/2026 at 21:17:05.
BEGIN options
END options

BEGIN timing
  TDIS6  struc_caseA.tdis
END timing

BEGIN models
  gwf6  struc_caseA.nam  struc_caseA
END models

BEGIN exchanges
END exchanges

BEGIN solutiongroup  1
  ims6  struc_caseA.ims  struc_caseA
END solutiongroup  1

