# File generated by Flopy version 3.9.1 on 02/09/2026 at 21:17:05.
BEGIN options
END options

BEGIN packages
  DIS6  struc_caseA.dis  dis
  IC6  struc_caseA.ic  ic
  CHD6  struc_caseA.chd  chd
  NPF6  struc_caseA.npf  npf
  WEL6  struc_caseA.wel  well_package
  RCH6  struc_caseA.rch  rch
  EVT6  struc_caseA.evt  evt
  OC6  struc_caseA.oc  oc
END packages

