# File generated by Flopy version 3.9.1 on 02/10/2026 at 22:10:09.
BEGIN options
END options

BEGIN timing
  TDIS6  triangle_caseC.tdis
END timing

BEGIN models
  gwf6  triangle_caseC.nam  triangle_casec
END models

BEGIN exchanges
END exchanges

BEGIN solutiongroup  1
  ims6  triangle_caseC.ims  triangle_casec
END solutiongroup  1

