# File generated by Flopy version 3.9.1 on 02/10/2026 at 22:10:09.
BEGIN options
END options

BEGIN dimensions
  NLAY  2
  NCPL  12818
  NVERT  7464
END dimensions

BEGIN griddata
  top
    INTERNAL  FACTOR  1.0
        -6.00000000       5.00000000     140.00000000     130.00000000     133.00000000     128.00000000     149.00000000     131.00000000     150.00000000     135.00000000     130.00000000     130.00000000     152.00000000     132.00000000     150.00000000     150.00000000     113.00000000     143.00000000     134.00000000       1.00000000
       132.00000000     135.00000000     140.00000000     130.00000000     148.00000000     140.00000000     137.00000000     139.00000000     130.00000000     129.00000000     121.00000000     133.00000000     132.00000000     133.00000000     149.00000000     129.00000000     132.00000000     135.00000000     133.00000000     140.00000000
       149.00000000     136.00000000      94.00000000     105.00000000     103.00000000      93.00000000      97.00000000      88.00000000      88.00000000      93.00000000      75.00000000     106.00000000      80.00000000      67.00000000      98.00000000      96.00000000      89.00000000      76.00000000     105.00000000      76.00000000
        71.00000000       1.00000000     140.00000000     132.00000000     130.00000000      97.00000000     132.00000000     136.00000000     142.00000000     134.00000000      -2.00000000     131.00000000      89.00000000      89.00000000      81.00000000      87.00000000      72.00000000      97.00000000      75.00000000      73.00000000
       -16.00000000      79.00000000     130.00000000      80.00000000     132.00000000      74.00000000     146.00000000       0.00000000     124.00000000      82.00000000     128.00000000     130.00000000     129.00000000     129.00000000     129.00000000     129.00000000     121.00000000     129.00000000     128.00000000     137.00000000
       126.00000000     128.00000000     128.00000000     125.00000000     128.00000000     123.00000000     129.00000000      82.00000000     121.00000000     126.00000000     125.00000000     124.00000000     119.00000000     123.00000000     122.00000000     120.00000000     125.00000000     119.00000000     118.00000000     104.00000000
       140.00000000     108.00000000     108.00000000     109.00000000     107.00000000     113.00000000     109.00000000     113.00000000     121.00000000     122.00000000     126.00000000     120.00000000     149.00000000     149.00000000     149.00000000     149.00000000     149.00000000     149.00000000     137.00000000     149.00000000
       140.00000000     140.00000000     140.00000000     141.00000000     149.00000000     148.00000000     149.00000000     147.00000000     149.00000000     142.00000000     148.00000000       4.00000000     149.00000000     147.00000000     148.00000000     149.00000000     149.00000000     148.00000000     148.00000000     148.00000000
       102.00000000     156.00000000     149.00000000     148.00000000     148.00000000     148.00000000     148.00000000     148.00000000     149.00000000     148.00000000     148.00000000     148.00000000     134.00000000     149.00000000       0.00000000     142.00000000     153.00000000      64.00000000      82.00000000     148.00000000
        94.00000000      72.00000000      79.00000000      79.00000000      79.00000000      78.00000000      80.00000000       3.00000000      78.00000000      71.00000000      78.00000000      56.00000000      77.00000000      78.00000000      79.00000000      79.00000000      77.00000000      79.00000000      79.00000000       0.00000000
        76.00000000      78.00000000      76.00000000      71.00000000      75.00000000      75.00000000      76.00000000      80.00000000      80.00000000      80.00000000      79.00000000      79.00000000      79.00000000      80.00000000      79.00000000      77.00000000      79.00000000      78.00000000      76.00000000      75.00000000
       106.00000000      80.00000000      76.00000000      56.00000000      80.00000000      78.00000000      80.00000000      79.00000000      80.00000000      79.00000000      65.00000000      69.00000000      67.00000000      36.00000000      80.00000000      79.00000000      79.00000000      80.00000000      80.00000000      80.00000000
        79.00000000      61.00000000      79.00000000      79.00000000      79.00000000      80.00000000      78.00000000      80.00000000      80.00000000      80.00000000      80.00000000      79.00000000      77.00000000      79.00000000      82.00000000      83.00000000      77.00000000      78.00000000      78.00000000      92.00000000
        78.00000000      79.00000000      80.00000000      80.00000000      79.00000000      48.00000000      76.00000000       2.00000000      75.00000000      74.00000000      76.00000000      70.00000000      82.00000000      74.00000000      76.00000000      60.00000000      83.00000000      86.00000000      87.00000000      82.00000000
        70.00000000      70.00000000      69.00000000      72.00000000      70.00000000      68.00000000      74.00000000       8.00000000      77.00000000      74.00000000      79.00000000      73.00000000      75.00000000      75.00000000      75.00000000      73.00000000     -16.00000000      75.00000000      70.00000000      70.00000000
        70.00000000      69.00000000      70.00000000      70.00000000      70.00000000      73.00000000      71.00000000      71.00000000      75.00000000      69.00000000      70.00000000      73.00000000      70.00000000      69.00000000      69.00000000      69.00000000      79.00000000      80.00000000      86.00000000      70.00000000
        77.00000000      69.00000000      77.00000000      78.00000000      77.00000000      80.00000000      79.00000000      78.00000000      69.00000000      78.00000000      79.00000000      69.00000000      71.00000000      71.00000000      81.00000000      79.00000000      75.00000000      80.00000000      90.00000000      85.00000000
        80.00000000      74.00000000      57.00000000      78.00000000      49.00000000      72.00000000      57.00000000      73.00000000      49.00000000      48.00000000      69.00000000      49.00000000      80.00000000      70.00000000      77.00000000      77.00000000      72.00000000      70.00000000      74.00000000      60.00000000
       112.00000000      72.00000000     130.00000000     107.00000000     110.00000000     120.00000000     109.00000000     108.00000000     109.00000000     108.00000000     109.00000000     109.00000000     109.00000000     109.00000000     109.00000000     109.00000000     109.00000000     109.00000000     109.00000000     109.00000000
       108.00000000     110.00000000     109.00000000     109.00000000     110.00000000      69.00000000     129.00000000      90.00000000     125.00000000     110.00000000     109.00000000     109.00000000      88.00000000     110.00000000     110.00000000     110.00000000     110.00000000     110.00000000     110.00000000     110.00000000
       120.00000000     109.00000000     -15.00000000      89.00000000     110.00000000     110.00000000     110.00000000     110.00000000     102.00000000     110.00000000     110.00000000     101.00000000      88.00000000     -16.00000000     115.00000000     108.00000000     104.00000000     104.00000000     110.00000000     102.00000000
       101.00000000     106.00000000     106.00000000     110.00000000     102.00000000     109.00000000     100.00000000      99.00000000     106.00000000     108.00000000     109.00000000     108.00000000     102.00000000     102.00000000     106.00000000     110.00000000     110.00000000     100.00000000     110.00000000     110.00000000
       109.00000000     109.00000000     103.00000000     122.00000000     109.00000000     110.00000000     110.00000000     108.00000000     127.00000000      -8.00000000      79.00000000      79.00000000      79.00000000      86.00000000      87.00000000      86.00000000      88.00000000      85.00000000      80.00000000      88.00000000
        79.00000000      81.00000000      83.00000000      81.00000000      81.00000000      84.00000000      79.00000000      82.00000000      84.00000000     100.00000000      87.00000000      89.00000000      88.00000000      85.00000000      85.00000000      79.00000000      63.00000000      81.00000000      89.00000000      83.00000000
        88.00000000      87.00000000      88.00000000      88.00000000      89.00000000      89.00000000      86.00000000      88.00000000      89.00000000      87.00000000      -1.00000000     100.00000000      -9.00000000      79.00000000      92.00000000      90.00000000      91.00000000      93.00000000      98.00000000      98.00000000
        95.00000000      97.00000000     107.00000000      87.00000000     110.00000000     109.00000000      88.00000000      96.00000000      91.00000000      90.00000000      90.00000000      89.00000000      89.00000000      59.00000000      99.00000000      99.00000000      97.00000000     101.00000000      63.00000000      99.00000000
        71.00000000      99.00000000      97.00000000      79.00000000      96.00000000      96.00000000     100.00000000      99.00000000      96.00000000     100.00000000      78.00000000      98.00000000      96.00000000      98.00000000     100.00000000      95.00000000      84.00000000     108.00000000      69.00000000      79.00000000
        -1.00000000      76.00000000      83.00000000      79.00000000      79.00000000      79.00000000      79.00000000      79.00000000      96.00000000      80.00000000      91.00000000      82.00000000      81.00000000      97.00000000      80.00000000      79.00000000      79.00000000      79.00000000      79.00000000      79.00000000
        79.00000000      75.00000000      80.00000000      79.00000000      79.00000000      79.00000000      79.00000000      80.00000000      79.00000000      80.00000000      80.00000000      87.00000000      79.00000000      80.00000000      80.00000000      79.00000000      79.00000000      80.00000000      79.00000000      80.00000000
       119.00000000      80.00000000      86.00000000      82.00000000      83.00000000      83.00000000      88.00000000      83.00000000      83.00000000      98.00000000     129.00000000      83.00000000      84.00000000     111.00000000      99.00000000     118.00000000      83.00000000      38.00000000      51.00000000     100.00000000
       120.00000000      52.00000000      83.00000000      56.00000000     129.00000000     128.00000000     128.00000000     127.00000000     127.00000000     127.00000000     130.00000000     129.00000000     126.00000000     127.00000000      82.00000000     129.00000000     127.00000000     129.00000000     129.00000000     128.00000000
       129.00000000     136.00000000     128.00000000     130.00000000     126.00000000      82.00000000     123.00000000      34.00000000      78.00000000      -1.00000000      92.00000000      88.00000000      92.00000000      91.00000000      93.00000000      93.00000000      92.00000000      92.00000000      90.00000000      89.00000000
        90.00000000      91.00000000      90.00000000      90.00000000      92.00000000      89.00000000      91.00000000      79.00000000      92.00000000      84.00000000      76.00000000      76.00000000      80.00000000     110.00000000      76.00000000      79.00000000     100.00000000     122.00000000      77.00000000      81.00000000
        79.00000000      79.00000000      81.00000000      81.00000000      79.00000000      80.00000000      81.00000000      83.00000000      79.00000000      82.00000000      78.00000000     110.00000000      77.00000000      80.00000000     121.00000000     125.00000000     122.00000000     122.00000000      79.00000000      97.00000000
       123.00000000     124.00000000     126.00000000     126.00000000     123.00000000     129.00000000      50.00000000      65.00000000      80.00000000      55.00000000     125.00000000     128.00000000      89.00000000      80.00000000      79.00000000      78.00000000      78.00000000      78.00000000      77.00000000      78.00000000
        76.00000000      77.00000000      84.00000000      99.00000000      40.00000000     143.00000000     157.00000000     115.00000000     120.00000000     121.00000000      52.00000000      29.00000000     150.00000000      40.00000000      32.00000000     128.00000000      79.00000000       4.00000000      78.00000000      91.00000000
        -2.00000000      49.00000000       2.00000000      -9.00000000      79.00000000      59.00000000     -16.00000000      -2.00000000      -7.00000000      -8.00000000       5.00000000      -8.00000000       7.00000000      -9.00000000      94.00000000      77.00000000     -11.00000000     -16.00000000      82.00000000     -16.00000000
        -5.00000000      90.00000000       1.00000000      79.00000000      -1.00000000      -2.00000000      68.00000000      53.00000000       1.00000000       3.00000000       4.00000000      -9.00000000       2.00000000       0.00000000     -13.00000000       2.00000000      60.00000000       4.00000000       2.00000000       3.00000000
         1.00000000       1.00000000       0.00000000       9.00000000       8.00000000      70.00000000      91.00000000     -16.00000000      -2.00000000       5.00000000       3.00000000      -5.00000000       2.00000000       2.00000000       4.00000000       3.00000000       0.00000000      -6.00000000      -2.00000000      -2.00000000
        -7.00000000      -2.00000000       4.00000000      -2.00000000       3.00000000      -4.00000000       4.00000000       0.00000000     -12.00000000       0.00000000      68.00000000       0.00000000      -6.00000000       5.00000000       0.00000000      -1.00000000       0.00000000     -16.00000000      -8.00000000      -7.00000000
         0.00000000      88.00000000       0.00000000       2.00000000      10.00000000       1.00000000       9.00000000      57.00000000       1.00000000      98.00000000       8.00000000      -3.00000000       6.00000000      -2.00000000       3.00000000     -16.00000000       3.00000000      48.00000000       7.00000000       7.00000000
       -16.00000000      -1.00000000      -9.00000000      65.00000000       5.00000000       4.00000000       0.00000000       9.00000000       6.00000000       5.00000000       4.00000000       6.00000000      10.00000000       4.00000000      11.00000000       1.00000000      -1.00000000       7.00000000      60.00000000      49.00000000
        48.00000000      59.00000000       7.00000000      -6.00000000      11.00000000      -7.00000000       3.00000000      11.00000000      12.00000000       6.00000000       1.00000000      12.00000000      -1.00000000      10.00000000      50.00000000       7.00000000     -16.00000000      12.00000000       5.00000000       0.00000000
        10.00000000       7.00000000      -2.00000000       9.00000000      12.00000000       7.00000000      -7.00000000      -3.00000000       8.00000000      80.00000000       0.00000000       8.00000000       7.00000000       7.00000000       9.00000000      -2.00000000      13.00000000      78.00000000       0.00000000       3.00000000
         6.00000000      12.00000000      -2.00000000       0.00000000       3.00000000      18.00000000       9.00000000      17.00000000       5.00000000      29.00000000      10.00000000       9.00000000     111.00000000      47.00000000      60.00000000       1.00000000      49.00000000       0.00000000      59.00000000      16.00000000
        50.00000000       3.00000000      50.00000000      59.00000000      70.00000000      -2.00000000      -2.00000000       1.00000000       3.00000000       7.00000000       3.00000000       1.00000000       5.00000000      -6.00000000      -1.00000000       0.00000000       3.00000000     117.00000000       0.00000000     -10.00000000
         0.00000000       2.00000000       0.00000000      -4.00000000       0.00000000     -16.00000000      -1.00000000       0.00000000       2.00000000       4.00000000       0.00000000       0.00000000       0.00000000       1.00000000      -2.00000000     -13.00000000     -16.00000000       0.00000000      -3.00000000      -3.00000000
         0.00000000     -16.00000000       1.00000000      -8.00000000       2.00000000      -6.00000000       1.00000000       0.00000000       2.00000000     -16.00000000     -16.00000000      -4.00000000      -7.00000000      -3.00000000     -16.00000000      -4.00000000      80.00000000      -5.00000000     -16.00000000       0.00000000
        89.00000000       4.00000000      -3.00000000      -5.00000000       5.00000000       4.00000000     -15.00000000      -2.00000000      -8.00000000     -13.00000000      90.00000000      -8.00000000     -15.00000000      -3.00000000     -14.00000000      -1.00000000      -8.00000000     -15.00000000       0.00000000       2.00000000
        -9.00000000      -6.00000000      -7.00000000       0.00000000      -9.00000000      -3.00000000       0.00000000      -5.00000000      -5.00000000      -2.00000000       0.00000000      93.00000000       1.00000000       3.00000000      -3.00000000      -3.00000000       0.00000000       0.00000000       0.00000000      -1.00000000
        -5.00000000      -2.00000000     -12.00000000     -12.00000000      -7.00000000       0.00000000       0.00000000       0.00000000       0.00000000      -2.00000000      -7.00000000      -9.00000000       0.00000000      -2.00000000       0.00000000       0.00000000       0.00000000       0.00000000      -3.00000000       0.00000000
         0.00000000       0.00000000       0.00000000       0.00000000       0.00000000       0.00000000       0.00000000       0.00000000       0.00000000       0.00000000       3.00000000       1.00000000      -2.00000000      -5.00000000      -2.00000000       0.00000000       0.00000000       1.00000000       9.00000000     -12.00000000
         0.00000000      -7.00000000     -16.00000000     110.00000000     -10.00000000      10.00000000       1.00000000     -16.00000000     -10.00000000      85.00000000       0.00000000       0.00000000      -1.00000000      -1.00000000     -16.00000000      91.00000000       0.00000000      95.00000000       6.00000000      -4.00000000
       -16.00000000       0.00000000     -15.00000000     -12.00000000       1.00000000      -9.00000000     -16.00000000     -16.00000000       0.00000000      -3.00000000     -14.00000000      88.00000000     -14.00000000      -5.00000000      -3.00000000      11.00000000       1.00000000       0.00000000       0.00000000      79.00000000
        -5.00000000     151.00000000       1.00000000      97.00000000       1.00000000      50.00000000       2.00000000      -2.00000000     -16.00000000       7.00000000       1.00000000       0.00000000      70.00000000       3.00000000      50.00000000       1.00000000      -7.00000000      -6.00000000       8.00000000      78.00000000
       -16.00000000      -4.00000000       1.00000000       3.00000000      -2.00000000      -9.00000000       3.00000000      46.00000000      10.00000000       7.00000000      20.00000000      49.00000000       7.00000000       5.00000000      49.00000000       2.00000000       8.00000000       8.00000000     -16.00000000      15.00000000
         6.00000000       8.00000000      12.00000000     -16.00000000       8.00000000      11.00000000       2.00000000     -16.00000000      47.00000000     -16.00000000       9.00000000      -1.00000000       0.00000000      -6.00000000      23.00000000      -7.00000000      18.00000000      -8.00000000      -7.00000000      -9.00000000
       -16.00000000       5.00000000     -16.00000000      -5.00000000     -15.00000000       2.00000000     -16.00000000      80.00000000     -16.00000000       0.00000000     -13.00000000       9.00000000     -16.00000000       3.00000000       0.00000000      -2.00000000     -16.00000000     -16.00000000       7.00000000       5.00000000
       -16.00000000     -16.00000000     -16.00000000       1.00000000     -16.00000000     -10.00000000      83.00000000       3.00000000       8.00000000       0.00000000      -6.00000000     -16.00000000     -16.00000000      -2.00000000       5.00000000     -16.00000000       3.00000000       0.00000000       0.00000000       0.00000000
         0.00000000      -2.00000000       8.00000000       0.00000000      -6.00000000     -14.00000000     -14.00000000     106.00000000       4.00000000       4.00000000      -7.00000000     -16.00000000       1.00000000       3.00000000      -5.00000000       0.00000000     -16.00000000      -1.00000000      -1.00000000     -16.00000000
        -6.00000000      -2.00000000       0.00000000      -5.00000000       6.00000000      -5.00000000       3.00000000       3.00000000       3.00000000      -4.00000000       4.00000000       3.00000000       2.00000000       1.00000000       3.00000000      -4.00000000      -1.00000000     -16.00000000       0.00000000       3.00000000
         0.00000000     -10.00000000       2.00000000     -14.00000000       2.00000000     -15.00000000       4.00000000     -16.00000000     -10.00000000      -2.00000000     -16.00000000      11.00000000      -1.00000000      -7.00000000      -3.00000000      -1.00000000       7.00000000      -2.00000000       4.00000000     -16.00000000
         0.00000000       4.00000000       2.00000000       4.00000000       3.00000000       4.00000000       4.00000000       0.00000000       0.00000000       2.00000000       0.00000000       1.00000000       0.00000000       2.00000000       5.00000000       5.00000000       7.00000000       5.00000000       5.00000000       0.00000000
         6.00000000       0.00000000       4.00000000       7.00000000       3.00000000     -13.00000000      49.00000000      -2.00000000     -16.00000000       3.00000000     -12.00000000      -8.00000000      -5.00000000       9.00000000     -12.00000000     -16.00000000     -16.00000000      -7.00000000     -16.00000000      -1.00000000
        87.00000000       9.00000000      -6.00000000     -16.00000000       9.00000000       8.00000000       3.00000000       0.00000000      -5.00000000       2.00000000      -9.00000000       0.00000000       8.00000000       6.00000000       4.00000000       0.00000000      -7.00000000       5.00000000      -5.00000000      -6.00000000
         3.00000000      78.00000000       0.00000000      -1.00000000      -2.00000000       9.00000000      -5.00000000       1.00000000      -2.00000000      95.00000000       6.00000000      79.00000000     -16.00000000       3.00000000      -9.00000000      -1.00000000       0.00000000     -16.00000000      -6.00000000     -16.00000000
       -16.00000000      81.00000000       0.00000000     -16.00000000     -16.00000000     -16.00000000     -16.00000000      89.00000000     -16.00000000     -16.00000000     -16.00000000      -1.00000000     -16.00000000     -16.00000000     119.00000000       2.00000000     -16.00000000     -16.00000000      79.00000000     -16.00000000
       -16.00000000     -16.00000000     -16.00000000     -16.00000000     -16.00000000       2.00000000     -16.00000000     -16.00000000     -16.00000000     -16.00000000      -9.00000000      87.00000000       6.00000000       0.00000000      -1.00000000     121.00000000      -2.00000000       2.00000000       0.00000000      10.00000000
         0.00000000      14.00000000       6.00000000       8.00000000      11.00000000       2.00000000       0.00000000       0.00000000     -12.00000000      -2.00000000       0.00000000      -1.00000000       3.00000000       6.00000000       5.00000000      10.00000000       2.00000000      -2.00000000       1.00000000       0.00000000
         5.00000000       1.00000000       5.00000000       5.00000000       2.00000000       1.00000000       6.00000000       1.00000000       0.00000000       4.00000000       3.00000000       4.00000000       3.00000000       4.00000000       0.00000000       8.00000000       2.00000000       2.00000000       0.00000000      10.00000000
         7.00000000       7.00000000      -3.00000000      -2.00000000       3.00000000       1.00000000       0.00000000      10.00000000       1.00000000       0.00000000       2.00000000       3.00000000       2.00000000      78.00000000       0.00000000       0.00000000      -2.00000000      11.00000000       2.00000000       8.00000000
         3.00000000      88.00000000      -2.00000000      79.00000000       3.00000000      -2.00000000       1.00000000       1.00000000      -1.00000000       0.00000000      -1.00000000      -1.00000000      15.00000000      -2.00000000       8.00000000      -7.00000000     113.00000000      -2.00000000      -2.00000000      66.00000000
        -1.00000000       9.00000000       0.00000000       5.00000000       1.00000000       4.00000000       2.00000000      -4.00000000      18.00000000      78.00000000       4.00000000       1.00000000      66.00000000      -2.00000000      -1.00000000       2.00000000      87.00000000      80.00000000      78.00000000      81.00000000
        54.00000000      77.00000000      91.00000000      77.00000000      79.00000000      77.00000000      77.00000000      78.00000000      77.00000000      78.00000000      76.00000000      76.00000000      78.00000000      76.00000000      76.00000000      79.00000000      78.00000000     100.00000000      79.00000000      79.00000000
        79.00000000      79.00000000      83.00000000      79.00000000      77.00000000      77.00000000      78.00000000      76.00000000      77.00000000      77.00000000      59.00000000      78.00000000      78.00000000      77.00000000      59.00000000      79.00000000      79.00000000      61.00000000      61.00000000      62.00000000
        56.00000000      78.00000000      61.00000000      62.00000000      60.00000000      61.00000000      62.00000000      79.00000000      62.00000000      61.00000000      61.00000000      61.00000000      62.00000000      61.00000000      61.00000000      61.00000000      60.00000000      62.00000000      58.00000000      55.00000000
        54.00000000      57.00000000      60.00000000      61.00000000      60.00000000      61.00000000      58.00000000      60.00000000      54.00000000      60.00000000      58.00000000      55.00000000      55.00000000      58.00000000      56.00000000      55.00000000      59.00000000      54.00000000      61.00000000      54.00000000
        61.00000000      59.00000000      78.00000000      57.00000000      60.00000000      60.00000000      60.00000000      60.00000000      60.00000000      60.00000000      59.00000000      60.00000000      60.00000000      60.00000000      59.00000000      61.00000000      60.00000000      60.00000000      61.00000000      61.00000000
        60.00000000      61.00000000      79.00000000      60.00000000      61.00000000      60.00000000      61.00000000      62.00000000      49.00000000      82.00000000      54.00000000      61.00000000      60.00000000      69.00000000      61.00000000      61.00000000      62.00000000      61.00000000      63.00000000      70.00000000
        70.00000000      67.00000000      61.00000000      61.00000000      69.00000000      61.00000000     -16.00000000      70.00000000      86.00000000      91.00000000      87.00000000      86.00000000      82.00000000      76.00000000      89.00000000      76.00000000      60.00000000      68.00000000      68.00000000      80.00000000
        89.00000000      91.00000000      89.00000000      90.00000000      68.00000000      66.00000000      75.00000000      91.00000000      71.00000000      69.00000000      79.00000000      69.00000000      69.00000000      69.00000000      69.00000000      69.00000000      69.00000000      68.00000000      70.00000000      79.00000000
        67.00000000     -16.00000000       9.00000000      -1.00000000      66.00000000     -10.00000000      73.00000000      25.00000000      57.00000000      72.00000000      70.00000000      42.00000000      58.00000000      79.00000000     119.00000000      69.00000000      69.00000000      68.00000000      65.00000000      66.00000000
        63.00000000      63.00000000      64.00000000      63.00000000      62.00000000      64.00000000      64.00000000      64.00000000      62.00000000      63.00000000      68.00000000      67.00000000      63.00000000      65.00000000      63.00000000      63.00000000      69.00000000      62.00000000      47.00000000      55.00000000
        46.00000000      46.00000000      52.00000000      47.00000000      47.00000000      49.00000000      47.00000000      64.00000000      48.00000000      49.00000000      49.00000000      48.00000000      49.00000000      48.00000000      60.00000000      67.00000000      63.00000000      68.00000000       1.00000000       3.00000000
         0.00000000       5.00000000       0.00000000       1.00000000      40.00000000       0.00000000      48.00000000      -1.00000000      -1.00000000     120.00000000       0.00000000       0.00000000       2.00000000       9.00000000       0.00000000      60.00000000       1.00000000       3.00000000       3.00000000     126.00000000
         3.00000000       1.00000000       5.00000000     118.00000000     133.00000000       3.00000000      42.00000000       3.00000000       2.00000000       2.00000000       3.00000000      -1.00000000      -1.00000000       0.00000000       2.00000000      -1.00000000       3.00000000       0.00000000      27.00000000       1.00000000