# File generated by Flopy version 3.9.1 on 02/10/2026 at 22:10:10.
BEGIN options
  FIXED_CELL
  PRINT_FLOWS
  SAVE_FLOWS
END options

BEGIN dimensions
  MAXBOUND  12818
END dimensions

BEGIN period  1
  1 1 1.01941988E-08
  1 2 1.40411454E-08
  1 3 1.65308714E-08
  1 4 1.65391826E-08
  1 5 1.83787437E-09
  1 6 1.65403056E-08
  1 7 1.64530882E-08
  1 8 1.65379491E-08
  1 9 1.67018664E-08
  1 10 1.65357805E-08
  1 11 1.83787766E-09
  1 12 1.65369752E-08
  1 13 1.68452229E-08
  1 14 1.83783807E-09
  1 15 1.87310776E-09
  1 16 1.68557750E-08
  1 17 1.90316335E-09
  1 18 1.68546549E-08
  1 19 1.83773743E-09
  1 20 1.40104031E-08
  1 21 1.65369324E-08
  1 22 1.65336253E-08
  1 23 1.65315618E-08
  1 24 1.65367892E-08
  1 25 1.82702186E-09
  1 26 1.83718261E-09
  1 27 1.65115911E-08
  1 28 1.83690393E-09
  1 29 1.65394019E-08
  1 30 1.65396699E-08
  1 31 1.84007089E-09
  1 32 1.83767897E-09
  1 33 1.65383411E-08
  1 34 1.65384058E-08
  1 35 1.85730174E-09
  1 36 1.83862637E-09
  1 37 1.65378798E-08
  1 38 1.83801572E-09
  1 39 1.83773019E-09
  1 40 1.65318925E-08
  1 41 1.64483245E-08
  1 42 1.83726501E-09
  1 43 1.64478381E-08
  1 44 1.64354229E-08
  1 45 1.64306272E-08
  1 46 1.64342100E-08
  1 47 1.64297400E-08
  1 48 1.82581056E-09
  1 49 1.64174683E-08
  1 50 1.82523624E-09
  1 51 1.63992691E-08
  1 52 1.82539598E-09
  1 53 1.82361806E-09
  1 54 1.63508404E-08
  1 55 1.64288716E-08
  1 56 1.64282782E-08
  1 57 1.82366767E-09
  1 58 1.82498019E-09
  1 59 1.64281464E-08
  1 60 1.82351208E-09
  1 61 1.61533572E-08
  1 62 1.21836991E-08
  1 63 1.68558874E-08
  1 64 1.68613455E-08
  1 65 1.87359599E-09
  1 66 1.88466064E-09
  1 67 1.68609767E-08
  1 68 1.68578082E-08
  1 69 1.87325180E-09
  1 70 1.87347300E-09
  1 71 1.09982805E-08
  1 72 1.87363839E-09
  1 73 1.64135844E-08
  1 74 1.64137620E-08
  1 75 1.64157020E-08
  1 76 1.82341235E-09
  1 77 1.64015898E-08
  1 78 1.60902426E-08
  1 79 1.63374808E-08
  1 80 1.63418952E-08
  1 81 9.84821758E-09
  1 82 1.82233780E-09
  1 83 1.69102625E-08
  1 84 1.61506871E-08
  1 85 1.68595860E-08
  1 86 1.81502503E-09
  1 87 1.87316918E-09
  1 88 1.19446434E-08
  1 89 1.60736686E-08
  1 90 1.57838939E-08
  1 91 1.60800070E-08
  1 92 1.78661844E-09
  1 93 1.78650574E-09
  1 94 1.60795937E-08
  1 95 1.73075536E-09
  1 96 1.60798483E-08
  1 97 1.60910727E-08
  1 98 1.60825194E-08
  1 99 1.60811025E-08
  1 100 1.62050904E-08
  1 101 1.60796989E-08
  1 102 1.78641157E-09
  1 103 1.78634483E-09
  1 104 1.60802035E-08
  1 105 1.78634106E-09
  1 106 1.60801113E-08
  1 107 1.78638917E-09
  1 108 1.58316492E-08
  1 109 1.60813684E-08
  1 110 1.78638732E-09
  1 111 1.78647096E-09
  1 112 1.60797867E-08
  1 113 1.60830238E-08
  1 114 1.78662047E-09
  1 115 1.78663371E-09
  1 116 1.60819148E-08
  1 117 1.78649789E-09
  1 118 1.60834823E-08
  1 119 1.60846231E-08
  1 120 1.61062613E-08
  1 121 1.81824133E-09
  1 122 1.78772197E-09
  1 123 1.60905226E-08
  1 124 1.60896605E-08
  1 125 1.78783873E-09
  1 126 1.78705417E-09
  1 127 1.60888094E-08
  1 128 1.78728757E-09
  1 129 1.78673903E-09
  1 130 1.60808914E-08
  1 131 1.78627895E-09
  1 132 1.61210639E-08
  1 133 1.64487784E-08
  1 134 1.64484452E-08
  1 135 1.64496121E-08
  1 136 1.64455605E-08
  1 137 1.82783808E-09
  1 138 1.82772043E-09
  1 139 1.62209278E-08
  1 140 1.64483298E-08
  1 141 1.65311467E-08
  1 142 1.65284883E-08
  1 143 1.65298955E-08
  1 144 1.83705520E-09
  1 145 1.82782573E-09
  1 146 1.82927102E-09
  1 147 1.64466512E-08
  1 148 1.83121168E-09
  1 149 1.82798101E-09
  1 150 1.83685977E-09
  1 151 1.82743725E-09
  1 152 1.23891152E-08
  1 153 1.64418593E-08
  1 154 1.64068222E-08
  1 155 1.82674421E-09
  1 156 1.64428015E-08
  1 157 1.64411141E-08
  1 158 1.64357137E-08
  1 159 1.82649488E-09
  1 160 1.82668552E-09
  1 161 1.79007544E-09
  1 162 1.85039723E-09
  1 163 1.64465490E-08
  1 164 1.64464671E-08
  1 165 1.82733214E-09
  1 166 1.82735394E-09
  1 167 1.64457916E-08
  1 168 1.64444429E-08
  1 169 1.82685082E-09
  1 170 1.82744147E-09
  1 171 1.64436734E-08
  1 172 1.82716310E-09
  1 173 1.87509015E-09
  1 174 1.63265802E-08
  1 175 1.24575720E-08
  1 176 1.83641410E-09
  1 177 1.87296893E-09
  1 178 1.81162902E-09
  1 179 1.56300639E-08
  1 180 1.82622081E-09
  1 181 1.62754340E-08
  1 182 1.62666780E-08
  1 183 1.61983125E-08
  1 184 1.61985088E-08
  1 185 1.79972290E-09
  1 186 1.61989588E-08
  1 187 1.62217708E-08
  1 188 1.40269132E-08
  1 189 1.61990703E-08
  1 190 1.62114462E-08
  1 191 1.79982449E-09
  1 192 1.62058429E-08
  1 193 1.61992633E-08
  1 194 1.61987387E-08
  1 195 1.79976169E-09
  1 196 1.79977217E-09
  1 197 1.61992943E-08
  1 198 1.79975517E-09
  1 199 1.79973335E-09
  1 200 1.08570957E-08
  1 201 1.79983985E-09
  1 202 1.61988464E-08
  1 203 1.61991989E-08
  1 204 1.80602838E-09
  1 205 1.79991896E-09
  1 206 1.61994088E-08
  1 207 1.61996726E-08
  1 208 1.79321672E-09
  1 209 1.61982309E-08
  1 210 1.61982305E-08
  1 211 1.79972757E-09
  1 212 1.79339963E-09
  1 213 1.61985734E-08
  1 214 1.61982619E-08
  1 215 1.79975394E-09
  1 216 1.79982424E-09
  1 217 1.61983511E-08
  1 218 1.79980707E-09
  1 219 1.79984453E-09
  1 220 1.61996432E-08
  1 221 1.80542818E-09
  1 222 1.79974286E-09
  1 223 1.80060478E-09
  1 224 1.79899678E-09
  1 225 1.61434987E-08
  1 226 1.79984431E-09
  1 227 1.79343893E-09
  1 228 1.61416037E-08
  1 229 1.79356623E-09
  1 230 1.61415591E-08
  1 231 1.61678384E-08
  1 232 1.61861695E-08
  1 233 1.61538908E-08
  1 234 1.58686772E-08
  1 235 1.61400316E-08
  1 236 1.79350981E-09
  1 237 1.79354963E-09
  1 238 1.61403778E-08
  1 239 1.61406080E-08
  1 240 1.61398596E-08
  1 241 1.79335829E-09
  1 242 1.62097244E-08
  1 243 1.61412487E-08
  1 244 1.79336920E-09
  1 245 1.79335563E-09
  1 246 1.61394071E-08
  1 247 1.61389245E-08
  1 248 1.79333563E-09
  1 249 1.79331635E-09
  1 250 1.61398161E-08
  1 251 1.79318304E-09
  1 252 1.61392775E-08
  1 253 1.61384988E-08
  1 254 1.61387867E-08
  1 255 1.79317468E-09
  1 256 1.79313604E-09
  1 257 1.61384114E-08
  1 258 1.61384341E-08
  1 259 1.61386911E-08
  1 260 1.79309628E-09
  1 261 1.61384050E-08
  1 262 1.79312832E-09
  1 263 1.79314933E-09
  1 264 1.61397339E-08
  1 265 1.79342047E-09
  1 266 1.45510640E-08
  1 267 1.79979401E-09
  1 268 1.35094051E-08
  1 269 1.81488815E-09
  1 270 1.63363369E-08
  1 271 1.63344565E-08
  1 272 1.63251735E-08
  1 273 1.81454156E-09
  1 274 1.81440508E-09
  1 275 1.63332469E-08
  1 276 1.81409885E-09
  1 277 1.62640175E-08
  1 278 1.62963222E-08
  1 279 1.80730817E-09
  1 280 1.62648431E-08
  1 281 1.63240117E-08
  1 282 1.63237801E-08
  1 283 1.81355167E-09
  1 284 1.81360712E-09
  1 285 1.81365921E-09
  1 286 1.81358634E-09
  1 287 1.63352949E-08
  1 288 1.40209324E-08
  1 289 1.61491221E-08
  1 290 1.63254315E-08
  1 291 1.79274616E-09
  1 292 1.63269427E-08
  1 293 1.61470684E-08
  1 294 1.61477313E-08
  1 295 1.79398554E-09
  1 296 1.79383563E-09
  1 297 9.49797972E-09
  1 298 1.79412580E-09
  1 299 1.63233179E-08
  1 300 1.63233168E-08
  1 301 1.81344432E-09
  1 302 1.81357726E-09
  1 303 1.63236210E-08
  1 304 1.63241080E-08
  1 305 1.81358069E-09
  1 306 1.81373192E-09
  1 307 1.63237783E-08
  1 308 1.80646153E-09
  1 309 1.79398296E-09
  1 310 1.63241661E-08
  1 311 1.63335388E-08
  1 312 1.81377451E-09
  1 313 1.80654529E-09
  1 314 1.62594047E-08
  1 315 1.62595450E-08
  1 316 1.62596605E-08
  1 317 1.79319017E-09
  1 318 1.79320264E-09
  1 319 1.62631933E-08
  1 320 1.80656367E-09
  1 321 1.61384879E-08
  1 322 1.80648600E-09
  1 323 1.61385160E-08
  1 324 1.61386116E-08
  1 325 1.79313201E-09
  1 326 1.61395792E-08
  1 327 1.79316837E-09
  1 328 1.79316626E-09
  1 329 1.80651426E-09
  1 330 1.79315746E-09
  1 331 1.79255867E-09
  1 332 1.62605730E-08
  1 333 1.62610351E-08
  1 334 1.62603996E-08
  1 335 1.80699161E-09
  1 336 1.80696837E-09
  1 337 1.62613740E-08
  1 338 1.62634338E-08
  1 339 1.80712855E-09
  1 340 1.80708112E-09
  1 341 1.62642396E-08
  1 342 1.80673687E-09
  1 343 1.59137742E-09
  1 344 1.80682979E-09
  1 345 1.56773522E-08
  1 346 1.80664129E-09
  1 347 1.62205932E-09
  1 348 1.80650191E-09
  1 349 1.65922716E-08
  1 350 1.40256840E-08
  1 351 1.81346840E-09
  1 352 1.40933684E-08
  1 353 1.75638132E-09
  1 354 1.62598266E-08
  1 355 1.62621115E-08
  1 356 1.79311649E-09
  1 357 1.79350868E-09
  1 358 1.62750213E-08
  1 359 1.81497489E-09
  1 360 1.77317885E-09
  1 361 1.60867358E-08
  1 362 1.62782242E-08
  1 363 1.57535113E-08
  1 364 1.73776997E-09
  1 365 1.56363985E-08
  1 366 1.74420071E-09
  1 367 1.56362123E-08
  1 368 1.73724813E-09
  1 369 1.57111800E-08
  1 370 1.73717941E-09
  1 371 1.56347989E-08
  1 372 1.56355455E-08
  1 373 1.73697498E-09
  1 374 1.73702151E-09
  1 375 1.56345366E-08
  1 376 1.56336842E-08
  1 377 1.73653483E-09
  1 378 1.73707323E-09
  1 379 1.56344757E-08
  1 380 1.73527129E-09
  1 381 1.56446025E-08
  1 382 1.73688772E-09
  1 383 1.56335159E-08
  1 384 1.56565454E-08
  1 385 1.57110007E-08
  1 386 1.63250776E-08
  1 387 1.57043018E-08
  1 388 1.73022800E-09
  1 389 1.57507064E-08
  1 390 1.56337196E-08
  1 391 1.56332834E-08
  1 392 1.56338295E-08
  1 393 1.73336587E-09
  1 394 1.73692674E-09
  1 395 1.56332285E-08
  1 396 1.56334486E-08
  1 397 1.73687921E-09
  1 398 1.73665730E-09
  1 399 1.56351393E-08
  1 400 1.73703354E-09
  1 401 1.56728551E-08
  1 402 1.57020864E-08
  1 403 9.89927725E-09
  1 404 1.73481765E-09
  1 405 1.73714079E-09
  1 406 1.56345040E-08
  1 407 1.73730825E-09
  1 408 1.56344536E-08
  1 409 1.74342529E-09
  1 410 1.73713114E-09
  1 411 1.56347860E-08
  1 412 1.74334392E-09
  1 413 1.55330182E-08
  1 414 9.41855287E-09
  1 415 1.56585499E-08
  1 416 1.55165653E-08
  1 417 1.56913236E-08
  1 418 1.56913997E-08
  1 419 1.73697843E-09
  1 420 1.74329049E-09
  1 421 1.74329150E-09
  1 422 1.74330527E-09
  1 423 1.56921760E-08
  1 424 1.73705452E-09
  1 425 1.56907965E-08
  1 426 1.56914177E-08
  1 427 1.74332457E-09
  1 428 1.74317329E-09
  1 429 1.56908441E-08
  1 430 1.56906834E-08
  1 431 1.74142824E-09
  1 432 1.74331672E-09
  1 433 1.56906770E-08
  1 434 1.74325018E-09
  1 435 1.56942337E-08
  1 436 1.56907868E-08
  1 437 1.74350501E-09
  1 438 1.74316640E-09
  1 439 1.56921987E-08
  1 440 1.56930332E-08
  1 441 1.74359455E-09
  1 442 1.74358943E-09
  1 443 1.56906125E-08
  1 444 1.74091965E-09
  1 445 1.56925569E-08
  1 446 1.74333424E-09
  1 447 1.56929806E-08
  1 448 1.74369214E-09
  1 449 1.57034871E-08
  1 450 1.34309445E-08
  1 451 1.76392195E-09
  1 452 1.59657690E-08
  1 453 1.58766466E-08
  1 454 1.76431563E-09
  1 455 1.76436360E-09
  1 456 1.58800697E-08
  1 457 1.76447094E-09
  1 458 1.76427067E-09
  1 459 1.58779117E-08
  1 460 1.76490079E-09
  1 461 1.76346814E-09
  1 462 1.58779543E-08
  1 463 1.58788530E-08
  1 464 1.76407420E-09
  1 465 1.76414148E-09
  1 466 1.58792574E-08
  1 467 1.76405029E-09
  1 468 1.58782928E-08
  1 469 1.58803714E-08
  1 470 1.58877190E-08
  1 471 1.76498171E-09
  1 472 1.76472580E-09
  1 473 1.76507214E-09
  1 474 1.58838604E-08
  1 475 1.59642411E-08
  1 476 1.59471930E-08
  1 477 1.81616523E-09
  1 478 1.59350500E-08
  1 479 1.58985503E-08
  1 480 1.58868467E-08
  1 481 1.58833178E-08
  1 482 1.76501009E-09
  1 483 1.76452345E-09
  1 484 1.58842447E-08
  1 485 1.58852233E-08
  1 486 1.76467080E-09
  1 487 1.58811752E-08
  1 488 1.58847389E-08
  1 489 1.76464279E-09
  1 490 1.58827746E-08
  1 491 1.40413632E-08
  1 492 1.76753072E-09
  1 493 9.04269091E-09
  1 494 1.58768614E-08
  1 495 1.58275846E-08
  1 496 1.58245388E-08
  1 497 1.58256077E-08
  1 498 1.58262141E-08
  1 499 1.75879378E-09
  1 500 1.75870310E-09
  1 501 1.58272283E-08
  1 502 1.75860560E-09
  1 503 1.56937598E-08
  1 504 1.57866743E-08
  1 505 1.74352318E-09
  1 506 1.56933241E-08
  1 507 1.58228038E-08
  1 508 1.57024938E-08
  1 509 1.75826869E-09
  1 510 1.75820488E-09
  1 511 1.58248353E-08
  1 512 1.75814196E-09
  1 513 1.75810573E-09
  1 514 1.82625621E-09
  1 515 1.58313288E-08
  1 516 1.58308727E-08
  1 517 1.75873534E-09
  1 518 1.75934697E-09
  1 519 1.58238509E-08
  1 520 1.58322859E-08
  1 521 1.58230085E-08
  1 522 1.58315833E-08
  1 523 1.58294259E-08
  1 524 1.75457338E-09
  1 525 1.58277752E-08
  1 526 1.58281567E-08
  1 527 1.75915640E-09
  1 528 1.75874866E-09
  1 529 1.75854312E-09
  1 530 1.75922291E-09
  1 531 1.58116449E-08
  1 532 1.75898927E-09
  1 533 1.58289261E-08
  1 534 1.75884933E-09
  1 535 1.75918928E-09
  1 536 1.58490677E-08
  1 537 1.55239146E-08
  1 538 1.74374488E-09
  1 539 1.59012278E-08
  1 540 1.76402144E-09
  1 541 1.30895893E-08
  1 542 1.75584262E-09
  1 543 1.56059911E-08
  1 544 1.73260894E-09
  1 545 1.73223663E-09
  1 546 1.73236055E-09
  1 547 1.73215232E-09
  1 548 1.55908194E-08
  1 549 1.55965224E-08
  1 550 1.55868646E-08
  1 551 1.56246799E-08
  1 552 1.56002185E-08
  1 553 1.55960152E-08
  1 554 1.61079412E-08
  1 555 1.55837784E-08
  1 556 1.73198331E-09
  1 557 1.73135716E-09
  1 558 1.55844576E-08
  1 559 1.55858632E-08
  1 560 1.55831371E-08
  1 561 1.73115363E-09
  1 562 1.62633382E-08
  1 563 1.55862790E-08
  1 564 1.73138831E-09
  1 565 1.73092579E-09
  1 566 1.73158821E-09
  1 567 1.73129072E-09
  1 568 1.55838054E-08
  1 569 1.73171316E-09
  1 570 1.55802464E-08
  1 571 1.55792645E-08
  1 572 1.72510529E-09
  1 573 1.73100471E-09
  1 574 1.55789708E-08
  1 575 1.55828960E-08
  1 576 1.73095110E-09
  1 577 1.73087584E-09
  1 578 1.55811039E-08
  1 579 1.73099167E-09
  1 580 1.55815861E-08
  1 581 1.55742740E-08
  1 582 1.55895758E-08
  1 583 1.55944366E-08
  1 584 1.55858656E-08
  1 585 1.57350451E-08
  1 586 1.57356605E-08
  1 587 1.57108310E-08
  1 588 1.56697887E-08
  1 589 1.74811624E-09
  1 590 1.74139148E-09
  1 591 1.78643596E-09
  1 592 1.74824831E-09
  1 593 1.79391956E-09
  1 594 1.60873705E-08
  1 595 1.78052849E-09
  1 596 1.78702445E-09
  1 597 1.75170904E-09
  1 598 1.89730321E-09
  1 599 1.71896641E-08
  1 600 1.87002626E-09
  1 601 1.78679978E-09
  1 602 1.68331324E-08
  1 603 1.74795801E-09
  1 604 1.61835014E-08
  1 605 1.55723484E-08
  1 606 1.55708754E-08
  1 607 1.72992612E-09
  1 608 1.55721410E-08
  1 609 1.55701185E-08
  1 610 1.55694142E-08
  1 611 1.72601854E-09
  1 612 1.73034735E-09
  1 613 1.55681909E-08
  1 614 1.72984772E-09
  1 615 1.75266927E-09
  1 616 1.73065547E-09
  1 617 1.55735634E-08
  1 618 1.73044392E-09
  1 619 1.55773524E-08
  1 620 1.55739963E-08
  1 621 1.87363713E-09
  1 622 1.82084905E-09
  1 623 1.55763949E-08
  1 624 1.73043375E-09
  1 625 1.72962519E-09
  1 626 1.56499857E-08
  1 627 1.56368991E-08
  1 628 1.69903532E-08
  1 629 1.72977339E-09
  1 630 1.20178486E-08
  1 631 1.55137603E-08
  1 632 1.55678767E-08
  1 633 1.55139731E-08
  1 634 1.55144805E-08
  1 635 1.72352492E-09
  1 636 1.72362380E-09
  1 637 1.55137739E-08
  1 638 1.72363903E-09
  1 639 1.55162048E-08
  1 640 1.55175754E-08
  1 641 1.72376030E-09
  1 642 1.72377815E-09
  1 643 1.55158666E-08
  1 644 1.55173389E-08
  1 645 1.72364757E-09
  1 646 1.72384880E-09
  1 647 1.55155639E-08
  1 648 1.73093223E-09
  1 649 1.72366111E-09
  1 650 1.55232709E-08
  1 651 1.58037070E-08
  1 652 1.58037360E-08
  1 653 1.75590510E-09
  1 654 1.74355696E-09
  1 655 1.58043294E-08
  1 656 1.58041454E-08
  1 657 1.74309310E-09
  1 658 1.72928852E-09
  1 659 1.58137577E-08
  1 660 1.75600970E-09
  1 661 1.58048765E-08
  1 662 1.58051030E-08
  1 663 1.75616370E-09
  1 664 1.75611129E-09
  1 665 1.58093205E-08
  1 666 1.58052171E-08
  1 667 1.75635912E-09
  1 668 1.75622824E-09
  1 669 1.58088218E-08
  1 670 1.75622264E-09
  1 671 1.58039487E-08
  1 672 1.73685045E-09
  1 673 1.75584435E-09
  1 674 1.75642946E-09
  1 675 1.55647999E-08
  1 676 1.55666438E-08
  1 677 1.72927928E-09
  1 678 1.55667758E-08
  1 679 1.73072896E-09
  1 680 1.72957348E-09
  1 681 1.55649939E-08
  1 682 1.72925425E-09
  1 683 1.55680394E-08
  1 684 1.55671482E-08
  1 685 1.72930760E-09
  1 686 1.88544607E-09
  1 687 1.66690170E-08
  1 688 1.88141813E-09
  1 689 1.86157459E-09
  1 690 1.67016956E-08
  1 691 1.72940252E-09
  1 692 1.72966509E-09
  1 693 1.72399650E-09
  1 694 1.72613136E-09
  1 695 1.58098858E-08
  1 696 1.58105955E-08
  1 697 1.75697560E-09
  1 698 1.75689111E-09
  1 699 1.75707423E-09
  1 700 1.58116234E-08
  1 701 1.75739456E-09
  1 702 1.75706159E-09
  1 703 1.75613137E-09
  1 704 1.67835080E-09
  1 705 1.58358437E-08
  1 706 1.88443825E-09
  1 707 1.87035573E-09
  1 708 1.65636344E-08
  1 709 1.65150704E-08
  1 710 1.82552149E-09
  1 711 1.83833537E-09
  1 712 1.66225798E-08
  1 713 1.87310310E-09
  1 714 1.52964795E-08
  1 715 1.65261288E-08
  1 716 1.72846373E-09
  1 717 1.58092112E-08
  1 718 1.32767995E-08
  1 719 1.58129849E-08
  1 720 1.55833104E-08
  1 721 1.18319536E-08
  1 722 1.60382637E-08
  1 723 1.37841573E-08
  1 724 1.30985620E-08
  1 725 1.79122702E-09
  1 726 1.68172140E-08
  1 727 1.42813958E-08
  1 728 7.35329059E-09
  1 729 1.42309984E-08
  1 730 1.20546014E-08
  1 731 1.42250214E-08
  1 732 1.42174997E-08
  1 733 1.28139026E-08
  1 734 1.20646419E-08
  1 735 1.57039901E-08
  1 736 1.62550317E-08
  1 737 1.42052131E-08
  1 738 1.42076849E-08
  1 739 1.73969590E-09
  1 740 1.42077457E-08
  1 741 1.42081394E-08
  1 742 1.78090680E-09
  1 743 1.41921575E-08
  1 744 1.79954145E-09
  1 745 1.49177223E-08
  1 746 1.18261633E-08
  1 747 1.81020656E-09
  1 748 1.64188923E-08
  1 749 1.58062661E-08
  1 750 1.06746534E-08
  1 751 1.15184830E-08
  1 752 1.20978781E-08
  1 753 1.67458026E-08
  1 754 1.40422767E-08
  1 755 1.41853260E-08
  1 756 1.50168393E-08
  1 757 1.80538666E-09
  1 758 1.48724096E-08
  1 759 1.51926060E-08
  1 760 1.22869921E-08
  1 761 1.53338573E-08
  1 762 1.53070325E-08
  1 763 1.40481990E-08
  1 764 1.38709589E-08
  1 765 1.27221274E-08
  1 766 1.62914632E-08
  1 767 1.55825007E-08
  1 768 1.19271312E-08
  1 769 1.18788544E-08
  1 770 1.36506206E-08
  1 771 1.32502773E-08
  1 772 1.34032263E-08
  1 773 1.33961746E-08
  1 774 1.32867828E-08
  1 775 1.33844999E-08
  1 776 1.34063299E-08
  1 777 1.32543709E-08
  1 778 1.32995771E-08
  1 779 7.43511645E-09
  1 780 7.42908542E-09
  1 781 1.31451663E-08
  1 782 1.32235252E-08
  1 783 1.31500884E-08
  1 784 1.31692285E-08
  1 785 1.31739664E-08
  1 786 9.15710078E-09
  1 787 1.32710564E-08
  1 788 1.16388255E-08
  1 789 1.29937512E-08
  1 790 1.29680745E-08
  1 791 1.79831542E-09
  1 792 1.30638884E-08
  1 793 1.29095093E-08
  1 794 1.25935750E-08
  1 795 1.27729563E-08
  1 796 1.29466744E-08
  1 797 1.29709094E-08
  1 798 9.80176153E-09
  1 799 1.26244293E-08
  1 800 1.25767269E-08
  1 801 1.23086992E-08
  1 802 1.76501839E-09
  1 803 1.24390141E-08
  1 804 1.25313574E-08
  1 805 1.14549906E-08
  1 806 1.22461013E-08
  1 807 1.24290098E-08
  1 808 1.62903521E-08
  1 809 1.29907896E-08
  1 810 1.56910857E-08
  1 811 1.06655567E-08
  1 812 9.17875433E-09
  1 813 1.96291985E-08
  1 814 1.18371644E-08
  1 815 1.78102091E-08
  1 816 1.00161137E-08
  1 817 1.38839730E-08
  1 818 1.63149771E-08
  1 819 1.96433345E-08
  1 820 1.99983811E-08
  1 821 9.46612341E-09
  1 822 1.36193289E-08
  1 823 1.15649636E-08
  1 824 1.63380826E-08
  1 825 1.88917501E-08
  1 826 1.83700647E-08
  1 827 1.09059390E-08
  1 828 1.38885355E-08
  1 829 1.96922860E-08
  1 830 1.92929044E-08
  1 831 1.29668297E-08
  1 832 1.96254956E-08
  1 833 2.04459556E-08
  1 834 1.81199070E-08
  1 835 1.96461455E-08
  1 836 1.35820074E-08
  1 837 9.48895243E-09
  1 838 1.96947742E-08
  1 839 1.73707187E-09
  1 840 1.76807860E-09
  1 841 1.54346165E-08
  1 842 1.62599897E-08
  1 843 1.40273461E-08
  1 844 1.29350507E-08
  1 845 1.99371004E-08
  1 846 1.41791185E-08
  1 847 7.50501018E-09
  1 848 2.05664519E-08
  1 849 2.05728692E-08
  1 850 1.08575648E-08
  1 851 1.39189400E-08
  1 852 2.06914410E-08
  1 853 1.34987641E-08
  1 854 2.08052636E-08
  1 855 1.61243237E-08
  1 856 1.96167409E-08
  1 857 1.01800937E-08
  1 858 2.05688023E-08
  1 859 1.91052299E-08
  1 860 1.53508403E-08
  1 861 1.15352779E-08
  1 862 2.00688719E-08
  1 863 1.13609551E-08
  1 864 1.08617943E-08
  1 865 2.07364698E-08
  1 866 1.15384565E-08
  1 867 1.16484873E-08
  1 868 1.17082935E-08
  1 869 1.14157936E-08
  1 870 1.62053991E-08
  1 871 1.10156291E-08
  1 872 1.07661741E-08
  1 873 1.05435480E-08
  1 874 1.06162284E-08
  1 875 1.08276819E-08
  1 876 1.10790613E-08
  1 877 2.13230788E-08
  1 878 1.60191225E-08
  1 879 1.14771542E-08
  1 880 1.33870307E-08
  1 881 1.82509394E-08
  1 882 2.11682878E-08
  1 883 9.75708223E-09
  1 884 1.15724001E-08
  1 885 9.28880649E-09
  1 886 2.02335187E-08
  1 887 1.39068812E-08
  1 888 2.08882654E-08
  1 889 1.13357477E-08
  1 890 1.86921994E-08
  1 891 1.39034219E-08
  1 892 1.14555440E-08
  1 893 1.13272410E-09
  1 894 1.56071671E-08
  1 895 1.44748322E-09
  1 896 1.17468650E-08
  1 897 1.22923710E-08
  1 898 1.01457408E-08
  1 899 1.61903230E-09
  1 900 2.09078721E-08
  1 901 1.37349191E-08
  1 902 1.02832485E-08
  1 903 1.78768085E-09
  1 904 1.79237554E-09
  1 905 1.80631347E-09
  1 906 1.06971864E-08
  1 907 1.05518715E-08
  1 908 1.12988851E-08
  1 909 1.02432775E-08
  1 910 1.05457527E-08
  1 911 1.02698686E-08
  1 912 1.01252662E-08
  1 913 1.03713160E-08
  1 914 1.06654642E-08
  1 915 1.04115286E-08
  1 916 1.04872082E-08
  1 917 1.34231106E-08
  1 918 1.61568198E-08
  1 919 1.00292667E-08
  1 920 1.02778050E-08
  1 921 9.97922066E-09
  1 922 1.01021429E-08
  1 923 1.00106995E-08
  1 924 1.00054672E-08
  1 925 9.98949796E-09
  1 926 9.76903826E-09
  1 927 9.94452649E-09
  1 928 9.95079321E-09
  1 929 9.96655408E-09
  1 930 1.00508085E-08
  1 931 9.94173224E-09
  1 932 9.94319546E-09
  1 933 9.97825721E-09
  1 934 9.94345958E-09
  1 935 9.96697922E-09
  1 936 9.96201765E-09
  1 937 9.95789664E-09
  1 938 1.40108450E-08
  1 939 9.95445202E-09
  1 940 9.93849736E-09
  1 941 1.00285621E-08
  1 942 9.95074020E-09
  1 943 9.98733310E-09
  1 944 9.96895109E-09
  1 945 9.96231515E-09
  1 946 9.96129779E-09
  1 947 9.94325407E-09
  1 948 9.92284956E-09
  1 949 1.40427402E-08
  1 950 9.96009124E-09
  1 951 9.95241812E-09
  1 952 9.89171644E-09
  1 953 1.34544426E-08
  1 954 9.99925983E-09
  1 955 1.01774787E-08
  1 956 8.96217021E-09
  1 957 1.59042791E-08
  1 958 9.99051745E-09
  1 959 9.96741839E-09
  1 960 1.23569732E-08
  1 961 1.59387328E-08
  1 962 1.28725348E-08
  1 963 9.93444287E-09
  1 964 9.94510964E-09
  1 965 1.36869758E-08
  1 966 1.24314606E-08
  1 967 9.94497376E-09
  1 968 1.31345614E-08
  1 969 9.91691636E-09
  1 970 9.89813623E-09
  1 971 1.59649758E-08
  1 972 9.95285556E-09
  1 973 9.89875688E-09
  1 974 9.93236789E-09
  1 975 9.90023395E-09
  1 976 1.35124060E-08
  1 977 9.92417935E-09
  1 978 9.89898169E-09
  1 979 1.31012693E-08
  1 980 1.39871818E-08
  1 981 9.89888504E-09
  1 982 1.34509632E-08
  1 983 1.00149432E-08
  1 984 1.01651589E-08
  1 985 1.03312284E-08
  1 986 1.01717909E-08
  1 987 9.89980880E-09
  1 988 1.05166470E-08
  1 989 1.05564092E-08
  1 990 9.09399892E-09
  1 991 1.01847233E-08
  1 992 1.59514286E-08
  1 993 1.01267344E-08
  1 994 1.38941189E-08
  1 995 1.10616045E-08
  1 996 1.05180077E-08
  1 997 1.16450725E-08
  1 998 1.19970383E-08
  1 999 1.18344688E-08
  1 1000 1.16378141E-08
  1 1001 1.05184222E-08
  1 1002 1.38102849E-08
  1 1003 1.16800949E-08
  1 1004 1.11612728E-08
  1 1005 1.13833054E-08
  1 1006 1.18506015E-08
  1 1007 1.19842115E-08
  1 1008 1.19303011E-08
  1 1009 1.19957789E-08
  1 1010 1.18924451E-08
  1 1011 1.10326488E-08
  1 1012 1.18365921E-08
  1 1013 1.19247813E-08
  1 1014 7.40157509E-09
  1 1015 1.21996907E-08
  1 1016 1.21619609E-08
  1 1017 1.23129937E-08
  1 1018 1.22350576E-08
  1 1019 1.23017592E-08
  1 1020 1.22443150E-08
  1 1021 1.23815918E-08
  1 1022 1.23197909E-08
  1 1023 1.21075648E-08
  1 1024 1.22557235E-08
  1 1025 1.21264305E-08
  1 1026 1.20682232E-08
  1 1027 1.22232355E-08
  1 1028 1.20815121E-08
  1 1029 1.20612366E-08
  1 1030 1.23664022E-08
  1 1031 1.25829015E-08
  1 1032 1.20339876E-08
  1 1033 1.23098160E-08
  1 1034 1.19562068E-08
  1 1035 1.23403700E-08
  1 1036 1.20465037E-08
  1 1037 1.23349472E-08
  1 1038 1.19319299E-08
  1 1039 1.33945094E-08
  1 1040 1.18089218E-08
  1 1041 1.38641481E-08
  1 1042 1.18693038E-08
  1 1043 1.19407399E-08
  1 1044 1.58898842E-08
  1 1045 1.19110220E-08
  1 1046 1.34182740E-08
  1 1047 1.20137133E-08
  1 1048 1.19373270E-08
  1 1049 1.20724097E-08
  1 1050 1.76997934E-09
  1 1051 1.21111095E-08
  1 1052 1.20765523E-08
  1 1053 1.21052915E-08
  1 1054 1.21163511E-08
  1 1055 1.19705275E-08
  1 1056 1.76605102E-09
  1 1057 1.21301282E-08
  1 1058 1.59525235E-08
  1 1059 1.39064505E-08
  1 1060 1.09196830E-08
  1 1061 1.20664591E-08
  1 1062 1.10398189E-08
  1 1063 1.20821917E-08
  1 1064 1.20914696E-08
  1 1065 1.20937866E-08
  1 1066 1.20741147E-08
  1 1067 1.20913262E-08
  1 1068 1.20709830E-08
  1 1069 1.13740280E-08
  1 1070 1.18750522E-08
  1 1071 1.19288196E-08
  1 1072 1.58742373E-08
  1 1073 1.19284492E-08
  1 1074 1.19185962E-08
  1 1075 1.15800870E-08
  1 1076 1.40533073E-08
  1 1077 1.19545309E-08
  1 1078 1.09313376E-08
  1 1079 1.21135534E-08
  1 1080 1.58847823E-08
  1 1081 1.20065768E-08
  1 1082 1.82750849E-09
  1 1083 1.19029564E-08
  1 1084 1.58410807E-08
  1 1085 1.23775938E-08
  1 1086 1.61976915E-08
  1 1087 1.15656151E-08
  1 1088 1.06530155E-08
  1 1089 1.12882946E-08
  1 1090 1.11199322E-08
  1 1091 1.23968850E-08
  1 1092 1.19717287E-08
  1 1093 1.76923615E-09
  1 1094 1.15868946E-08
  1 1095 1.77799471E-09
  1 1096 1.16326758E-08
  1 1097 1.14987114E-08
  1 1098 1.12008912E-08
  1 1099 1.39240600E-08
  1 1100 1.76563703E-09
  1 1101 1.07871515E-08
  1 1102 1.13518111E-08
  1 1103 1.17176726E-08
  1 1104 1.07269664E-08
  1 1105 1.12524284E-08
  1 1106 1.12592829E-08
  1 1107 1.61711339E-08
  1 1108 1.54671020E-08
  1 1109 1.05569318E-08
  1 1110 1.08275912E-08
  1 1111 1.81780982E-09
  1 1112 1.60111224E-08
  1 1113 1.02902987E-08
  1 1114 1.00159061E-08
  1 1115 1.84737741E-09
  1 1116 9.48474902E-09
  1 1117 1.06952395E-08
  1 1118 1.06101828E-08
  1 1119 9.90770575E-09
  1 1120 1.00078473E-08
  1 1121 1.01432705E-08
  1 1122 1.05964468E-08
  1 1123 9.65575933E-09
  1 1124 9.69310060E-09
  1 1125 1.05383878E-08
  1 1126 1.02136175E-08
  1 1127 1.03124836E-08
  1 1128 1.01107790E-08
  1 1129 1.82973615E-09
  1 1130 9.25110173E-09
  1 1131 1.39420820E-08
  1 1132 1.09563038E-08
  1 1133 1.07182508E-08
  1 1134 9.90093211E-09
  1 1135 1.00066609E-08
  1 1136 1.39758936E-08
  1 1137 1.02857681E-08
  1 1138 1.12972672E-08
  1 1139 1.43006404E-08
  1 1140 9.98626993E-09
  1 1141 9.81646225E-09
  1 1142 1.39251272E-08
  1 1143 9.79971224E-09
  1 1144 1.33202613E-08
  1 1145 9.78314810E-09
  1 1146 1.32861858E-08
  1 1147 9.79713877E-09
  1 1148 1.60375080E-08
  1 1149 9.79285063E-09
  1 1150 1.06464080E-08
  1 1151 9.74884693E-09
  1 1152 9.59633224E-09
  1 1153 9.73595833E-09
  1 1154 1.38465582E-08
  1 1155 9.39296522E-09
  1 1156 9.69015512E-09
  1 1157 9.87425809E-09
  1 1158 9.72852966E-09
  1 1159 9.74569023E-09
  1 1160 9.52668567E-09
  1 1161 9.75174750E-09
  1 1162 9.19053268E-09
  1 1163 9.73021226E-09
  1 1164 7.55912237E-09
  1 1165 9.80512204E-09
  1 1166 9.18582435E-09
  1 1167 1.57272543E-08
  1 1168 1.32218624E-08
  1 1169 1.34302235E-08
  1 1170 9.20717631E-09
  1 1171 9.09378985E-09
  1 1172 9.79806384E-09
  1 1173 9.56274851E-09
  1 1174 1.30317427E-08
  1 1175 1.19055442E-08
  1 1176 9.41901442E-09
  1 1177 9.04453373E-09
  1 1178 9.31930063E-09
  1 1179 9.19821404E-09
  1 1180 9.23420912E-09
  1 1181 9.34046428E-09
  1 1182 9.66357229E-09
  1 1183 9.70288115E-09
  1 1184 9.20003803E-09
  1 1185 9.08645170E-09
  1 1186 9.10309469E-09
  1 1187 9.10079451E-09
  1 1188 1.59842746E-08
  1 1189 9.13095898E-09
  1 1190 9.48011555E-09
  1 1191 9.41926639E-09
  1 1192 9.05033142E-09
  1 1193 8.97206431E-09
  1 1194 9.03337132E-09
  1 1195 1.00323858E-08
  1 1196 9.30798238E-09
  1 1197 9.44170115E-09
  1 1198 9.56880533E-09
  1 1199 1.05169152E-08
  1 1200 9.55847990E-09
  1 1201 1.02689129E-08
  1 1202 1.07409063E-08
  1 1203 1.18519966E-08
  1 1204 1.01704178E-08
  1 1205 9.61448287E-09
  1 1206 1.04751432E-08
  1 1207 1.22127668E-08
  1 1208 1.24721790E-08
  1 1209 1.26387934E-08
  1 1210 1.14407714E-08
  1 1211 1.26517125E-08
  1 1212 1.25414912E-08
  1 1213 1.19611149E-08
  1 1214 1.16255691E-08
  1 1215 1.24951537E-08
  1 1216 1.06422425E-08
  1 1217 1.10124108E-08
  1 1218 9.92317925E-09
  1 1219 9.84414580E-09
  1 1220 1.23503139E-08
  1 1221 7.81224660E-09
  1 1222 9.09460228E-09
  1 1223 1.16965963E-08
  1 1224 9.09584145E-09
  1 1225 1.23482027E-08
  1 1226 9.41700218E-09
  1 1227 1.28911229E-08
  1 1228 9.74288696E-09
  1 1229 9.93954515E-09
  1 1230 9.41604653E-09
  1 1231 9.41749445E-09
  1 1232 7.32278920E-09
  1 1233 1.28814540E-08
  1 1234 9.41784221E-09
  1 1235 9.57242138E-09
  1 1236 7.34752231E-09
  1 1237 9.42079486E-09
  1 1238 9.42905646E-09
  1 1239 1.26264720E-08
  1 1240 9.10446376E-09
  1 1241 1.23204777E-08
  1 1242 1.29449682E-08
  1 1243 1.29013511E-08
  1 1244 1.25598791E-08
  1 1245 1.29625192E-08
  1 1246 1.28565945E-08
  1 1247 1.20064270E-08
  1 1248 1.24312182E-08
  1 1249 1.28988386E-08
  1 1250 1.26290081E-08
  1 1251 1.21264035E-08
  1 1252 1.27243496E-08
  1 1253 1.17982470E-08
  1 1254 1.15477686E-08
  1 1255 1.14713458E-08
  1 1256 1.13066581E-08
  1 1257 1.14924587E-08
  1 1258 1.16016429E-08
  1 1259 1.21060473E-08
  1 1260 1.22044643E-08
  1 1261 1.18942647E-08
  1 1262 1.25951269E-08
  1 1263 1.27018461E-08
  1 1264 1.00581105E-08
  1 1265 1.25413048E-08
  1 1266 9.10840352E-09
  1 1267 1.53910769E-08
  1 1268 1.07803280E-08
  1 1269 1.00609661E-08
  1 1270 1.38440853E-08
  1 1271 1.02294541E-08
  1 1272 1.00662235E-08
  1 1273 1.07329790E-08
  1 1274 1.38616984E-08
  1 1275 1.03167446E-08
  1 1276 9.90659587E-09
  1 1277 9.82327333E-09
  1 1278 1.31515886E-08
  1 1279 9.56175813E-09
  1 1280 9.40462916E-09
  1 1281 1.56127571E-08
  1 1282 1.21473166E-08
  1 1283 1.15404947E-08
  1 1284 9.29261959E-09
  1 1285 1.39170998E-08
  1 1286 1.13383706E-08
  1 1287 1.21416291E-08