# File generated by Flopy version 3.9.1 on 02/10/2026 at 22:10:09.
BEGIN options
  SAVE_FLOWS
  NEWTON  UNDER_RELAXATION
END options

BEGIN packages
  disv6  triangle_caseC.disv  disv
  ic6  triangle_caseC.ic  ic
  chd6  triangle_caseC.chd  chd
  npf6  triangle_caseC.npf  npf
  wel6  triangle_caseC.wel  well_casec
  rch6  triangle_caseC.rch  rch
  evt6  triangle_caseC.evt  evt
  oc6  triangle_caseC.oc  oc
END packages

