# File generated by Flopy version 3.9.1 on 02/10/2026 at 22:10:10.
BEGIN options
  BUDGET  FILEOUT  triangle_caseC.cbc
  HEAD  FILEOUT  triangle_caseC.hds
END options

BEGIN period  1
  SAVE  head  last
  SAVE  budget  last
  PRINT  budget  last
END period  1

