# File generated by Flopy version 3.9.1 on 02/09/2026 at 23:33:23.
BEGIN options
  SAVE_FLOWS
END options

BEGIN dimensions
  MAXBOUND  15194
END dimensions

BEGIN period  1
  2 3 -0.00000000E+00
  2 4 -0.00000000E+00
  2 5 -0.00000000E+00
  2 6 -0.00000000E+00
  2 7 -0.00000000E+00
  2 8 -0.00000000E+00
  2 9 -0.00000000E+00
  2 10 -0.00000000E+00
  2 11 -0.00000000E+00
  2 12 -0.00000000E+00
  2 13 -0.00000000E+00
  2 14 -0.00000000E+00
  2 15 -0.00000000E+00
  2 16 -0.00000000E+00
  2 17 -0.00000000E+00
  2 18 -0.00000000E+00
  2 19 -0.00000000E+00
  2 21 -0.00000000E+00
  2 22 -0.00000000E+00
  2 23 -0.00000000E+00
  2 24 -0.00000000E+00
  2 26 -0.00000000E+00
  2 27 -0.00000000E+00
  2 28 -0.00000000E+00
  2 29 -0.00000000E+00
  2 30 -0.00000000E+00
  2 31 -0.00000000E+00
  2 32 -0.00000000E+00
  2 33 -0.00000000E+00
  2 34 -0.00000000E+00
  2 35 -0.00000000E+00
  2 36 -0.00000000E+00
  2 37 -0.00000000E+00
  2 38 -0.00000000E+00
  2 39 -0.00000000E+00
  2 40 -0.00000000E+00
  2 41 -0.00000000E+00
  2 42 -0.00000000E+00
  2 63 -0.00000000E+00
  2 64 -0.00000000E+00
  2 65 -0.00000000E+00
  2 66 -0.00000000E+00
  2 67 -0.00000000E+00
  2 68 -0.00000000E+00
  2 69 -0.00000000E+00
  2 70 -0.00000000E+00
  2 72 -0.00000000E+00
  2 83 -0.00000000E+00
  2 84 -0.00000000E+00
  2 85 -0.00000000E+00
  2 87 -0.00000000E+00
  2 133 -0.00000000E+00
  2 134 -0.00000000E+00
  2 135 -0.00000000E+00
  2 137 -0.00000000E+00
  2 138 -0.00000000E+00
  2 140 -0.00000000E+00
  2 141 -0.00000000E+00
  2 142 -0.00000000E+00
  2 143 -0.00000000E+00
  2 144 -0.00000000E+00
  2 145 -0.00000000E+00
  2 146 -0.00000000E+00
  2 147 -0.00000000E+00
  2 148 -0.00000000E+00
  2 149 -0.00000000E+00
  2 150 -0.00000000E+00
  2 162 -0.00000000E+00
  2 173 -0.00000000E+00
  2 176 -0.00000000E+00
  2 177 -0.00000000E+00
  2 349 -0.00000000E+00
  2 593 -0.00000000E+00
  2 598 -6.85136033E-03
  2 599 -6.85136033E-03
  2 600 -0.00000000E+00
  2 602 -0.00000000E+00
  2 621 -0.00000000E+00
  2 628 -5.48108826E-03
  2 686 -0.00000000E+00
  2 687 -0.00000000E+00
  2 688 -1.50729927E-02
  2 689 -3.01459855E-02
  2 690 -0.00000000E+00
  2 706 -0.00000000E+00
  2 707 -0.00000000E+00
  2 713 -0.00000000E+00
  2 726 -0.00000000E+00
  2 1879 -0.00000000E+00
  2 1986 -0.00000000E+00
  2 2053 -0.00000000E+00
  2 2088 -0.00000000E+00
  2 2100 -0.00000000E+00
  2 2115 -0.00000000E+00
  2 2268 -0.00000000E+00
  2 2724 -0.00000000E+00
  2 2730 -0.00000000E+00
  2 2851 -0.00000000E+00
  2 2883 -0.00000000E+00
  2 2896 -0.00000000E+00
  2 3279 -0.00000000E+00
  2 3280 -0.00000000E+00
  2 3281 -0.00000000E+00
  2 3282 -0.00000000E+00
  2 3704 -0.00000000E+00
  2 3705 -0.00000000E+00
  2 3706 -0.00000000E+00
  2 3708 -0.00000000E+00
  2 3709 -0.00000000E+00
  2 3710 -0.00000000E+00
  2 3711 -0.00000000E+00
  2 3712 -0.00000000E+00
  2 3713 -0.00000000E+00
  2 4060 -0.00000000E+00
  2 4061 -0.00000000E+00
  2 4062 -0.00000000E+00
  2 4063 -0.00000000E+00
  2 4064 -0.00000000E+00
  2 4065 -0.00000000E+00
  2 4068 -0.00000000E+00
  2 4069 -0.00000000E+00
  2 4070 -0.00000000E+00
  2 4071 -0.00000000E+00
  2 4072 -0.00000000E+00
  2 4073 -0.00000000E+00
  2 4074 -0.00000000E+00
  2 4075 -0.00000000E+00
  2 4337 -0.00000000E+00
  2 4338 -0.00000000E+00
  2 4339 -0.00000000E+00
  2 4341 -0.00000000E+00
  2 4465 -0.00000000E+00
  2 4780 -0.00000000E+00
  2 4782 -0.00000000E+00
  2 4783 -0.00000000E+00
  2 4784 -0.00000000E+00
  2 4785 -0.00000000E+00
  2 4786 -0.00000000E+00
  2 4787 -0.00000000E+00
  2 4788 -0.00000000E+00
  2 4789 -0.00000000E+00
  2 4790 -0.00000000E+00
  2 4813 -0.00000000E+00
  2 4816 -0.00000000E+00
  2 4976 -0.00000000E+00
  2 4977 -0.00000000E+00
  2 4978 -0.00000000E+00
  2 4979 -0.00000000E+00
  2 4980 -0.00000000E+00
  2 4981 -0.00000000E+00
  2 4982 -0.00000000E+00
  2 4983 -0.00000000E+00
  2 4984 -0.00000000E+00
  2 4985 -0.00000000E+00
  2 4986 -0.00000000E+00
  2 4987 -0.00000000E+00
  2 4988 -0.00000000E+00
  2 4989 -0.00000000E+00
  2 4990 -0.00000000E+00
  2 4991 -0.00000000E+00
  2 4992 -0.00000000E+00
  2 4993 -0.00000000E+00
  2 4994 -0.00000000E+00
  2 4995 -0.00000000E+00
  2 4996 -0.00000000E+00
  2 4997 -0.00000000E+00
  2 4998 -0.00000000E+00
  2 4999 -0.00000000E+00
  2 5000 -0.00000000E+00
  2 5001 -0.00000000E+00
  2 5002 -0.00000000E+00
  2 5003 -0.00000000E+00
  2 5004 -0.00000000E+00
  2 5005 -0.00000000E+00
  2 5006 -0.00000000E+00
  2 5007 -0.00000000E+00
  2 5008 -0.00000000E+00
  2 5009 -0.00000000E+00
  2 5010 -0.00000000E+00
  2 5048 -0.00000000E+00
  2 5049 -0.00000000E+00
  2 5050 -0.00000000E+00
  2 5054 -0.00000000E+00
  2 5055 -0.00000000E+00
  2 5056 -0.00000000E+00
  2 5057 -0.00000000E+00
  2 5447 -0.00000000E+00
  2 5448 -0.00000000E+00
  2 5449 -0.00000000E+00
  2 5450 -0.00000000E+00
  2 5451 -0.00000000E+00
  2 5452 -0.00000000E+00
  2 5453 -0.00000000E+00
  2 5454 -0.00000000E+00
  2 5455 -0.00000000E+00
  2 5456 -0.00000000E+00
  2 5457 -0.00000000E+00
  2 5458 -0.00000000E+00
  2 5459 -0.00000000E+00
  2 5460 -0.00000000E+00
  2 5461 -0.00000000E+00
  2 5462 -0.00000000E+00
  2 5463 -0.00000000E+00
  2 5464 -0.00000000E+00
  2 5465 -0.00000000E+00
  2 5466 -0.00000000E+00
  2 5487 -0.00000000E+00
  2 5488 -0.00000000E+00
  2 5537 -0.00000000E+00
  2 5538 -0.00000000E+00
  2 5691 -0.00000000E+00
  2 5746 -0.00000000E+00
  2 5747 -0.00000000E+00
  2 5792 -0.00000000E+00
  2 5793 -0.00000000E+00
  2 5794 -0.00000000E+00
  2 5795 -0.00000000E+00
  2 5834 -0.00000000E+00
  2 5835 -0.00000000E+00
  2 5836 -0.00000000E+00
  2 5837 -0.00000000E+00
  2 5838 -0.00000000E+00
  2 5839 -0.00000000E+00
  2 5857 -0.00000000E+00
  2 5858 -0.00000000E+00
  2 5859 -0.00000000E+00
  2 5860 -0.00000000E+00
  2 5890 -0.00000000E+00
  2 5891 -0.00000000E+00
  2 5892 -0.00000000E+00
  2 5893 -0.00000000E+00
  2 5894 -0.00000000E+00
  2 5895 -0.00000000E+00
  2 5905 -0.00000000E+00
  2 5906 -0.00000000E+00
  2 5907 -0.00000000E+00
  2 5908 -0.00000000E+00
  2 5930 -0.00000000E+00
  2 5931 -0.00000000E+00
  2 5932 -0.00000000E+00
  2 5933 -0.00000000E+00
  2 5934 -0.00000000E+00
  2 5935 -0.00000000E+00
  2 5940 -0.00000000E+00
  2 5941 -0.00000000E+00
  2 5942 -0.00000000E+00
  2 5943 -0.00000000E+00
  2 5958 -0.00000000E+00
  2 5959 -0.00000000E+00
  2 5970 -0.00000000E+00
  2 5971 -0.00000000E+00
  2 5978 -0.00000000E+00
  2 5979 -0.00000000E+00
  2 5992 -0.00000000E+00
  2 6023 -0.00000000E+00
  2 6024 -0.00000000E+00
  2 6053 -0.00000000E+00
  2 6054 -0.00000000E+00
  2 6063 -0.00000000E+00
  2 6064 -0.00000000E+00
  2 6192 -0.00000000E+00
  2 6193 -0.00000000E+00
  2 6214 -0.00000000E+00
  2 6215 -0.00000000E+00
  2 6216 -0.00000000E+00
  2 6250 -0.00000000E+00
  2 6272 -6.85136033E-03
  2 6273 -2.74054413E-03
  2 6274 -0.00000000E+00
  2 6284 -0.00000000E+00
  2 6285 -0.00000000E+00
  2 6307 -0.00000000E+00
  2 6308 -0.00000000E+00
  2 6309 -0.00000000E+00
  2 6315 -0.00000000E+00
  2 6316 -0.00000000E+00
  2 6317 -0.00000000E+00
  2 6321 -0.00000000E+00
  2 6322 -0.00000000E+00
  2 6323 -0.00000000E+00
  2 6326 -0.00000000E+00
  2 6327 -0.00000000E+00
  2 6328 -0.00000000E+00
  2 6331 -0.00000000E+00
  2 6332 -0.00000000E+00
  2 6333 -0.00000000E+00
  2 6334 -0.00000000E+00
  2 6348 -0.00000000E+00
  2 6365 -0.00000000E+00
  2 6366 -0.00000000E+00
  2 6367 -0.00000000E+00
  2 6400 -0.00000000E+00
  2 6401 -0.00000000E+00
  2 6406 -0.00000000E+00
  2 6428 -0.00000000E+00
  2 6444 -0.00000000E+00
  2 6445 -0.00000000E+00
  2 6486 -0.00000000E+00
  2 6487 -0.00000000E+00
  2 6531 -0.00000000E+00
  2 6532 -0.00000000E+00
  2 6539 -0.00000000E+00
  2 6540 -0.00000000E+00
  2 6541 -0.00000000E+00
  2 6549 -0.00000000E+00
  2 6550 -0.00000000E+00
  2 6594 -0.00000000E+00
  2 6595 -0.00000000E+00
  2 6596 -0.00000000E+00
  2 6606 -0.00000000E+00
  2 6607 -0.00000000E+00
  2 6623 -0.00000000E+00
  2 6624 -0.00000000E+00
  2 6662 -1.37027207E-03
  2 6665 -1.37027207E-03
  2 6666 -0.00000000E+00
  2 6692 -0.00000000E+00
  2 6694 -0.00000000E+00
  2 6695 -0.00000000E+00
  2 6728 -0.00000000E+00
  2 6729 -0.00000000E+00
  2 6780 -0.00000000E+00
  2 6781 -0.00000000E+00
  2 6820 -0.00000000E+00
  2 6855 -0.00000000E+00
  2 6856 -0.00000000E+00
  2 6863 -1.37027207E-03
  2 6864 -0.00000000E+00
  2 6892 -0.00000000E+00
  2 6893 -0.00000000E+00
  2 6949 -0.00000000E+00
  2 6950 -0.00000000E+00
  2 6973 -0.00000000E+00
  2 6975 -0.00000000E+00
  2 6976 -0.00000000E+00
  2 6977 -0.00000000E+00
  2 7232 -0.00000000E+00
  2 7233 -0.00000000E+00
  2 7234 -0.00000000E+00
  2 7244 -0.00000000E+00
  2 7245 -0.00000000E+00
  2 7246 -0.00000000E+00
  2 7247 -0.00000000E+00
  2 7248 -0.00000000E+00
  2 7249 -0.00000000E+00
  2 7256 -0.00000000E+00
  2 7257 -0.00000000E+00
  2 7258 -0.00000000E+00
  2 7262 -2.74054413E-03
  2 7263 -1.37027207E-03
  2 7264 -0.00000000E+00
  2 7265 -0.00000000E+00
  2 7266 -0.00000000E+00
  2 7267 -0.00000000E+00
  2 7500 -0.00000000E+00
  2 7501 -0.00000000E+00
  2 7502 -0.00000000E+00
  2 7503 -0.00000000E+00
  2 7504 -0.00000000E+00
  2 7505 -0.00000000E+00
  2 7506 -0.00000000E+00
  2 7507 -0.00000000E+00
  2 7508 -0.00000000E+00
  2 7509 -0.00000000E+00
  2 7510 -0.00000000E+00
  2 7511 -0.00000000E+00
  2 7512 -0.00000000E+00
  2 7513 -0.00000000E+00
  2 7514 -0.00000000E+00
  2 7515 -0.00000000E+00
  2 7516 -0.00000000E+00
  2 7517 -2.74054413E-03
  2 7518 -0.00000000E+00
  2 7519 -2.74054413E-03
  2 7520 -2.74054413E-03
  2 7521 -0.00000000E+00
  2 7522 -2.74054413E-03
  2 7523 -0.00000000E+00
  2 7612 -0.00000000E+00
  2 7613 -0.00000000E+00
  2 7614 -0.00000000E+00
  2 7615 -0.00000000E+00
  2 7616 -0.00000000E+00
  2 7617 -0.00000000E+00
  2 7618 -0.00000000E+00
  2 7619 -0.00000000E+00
  2 7620 -0.00000000E+00
  2 7621 -0.00000000E+00
  2 7622 -0.00000000E+00
  2 7623 -0.00000000E+00
  2 7624 -0.00000000E+00
  2 7625 -0.00000000E+00
  2 7626 -0.00000000E+00
  2 7627 -0.00000000E+00
  2 7628 -0.00000000E+00
  2 7629 -0.00000000E+00
  2 7630 -0.00000000E+00
  2 7631 -0.00000000E+00
  2 7632 -0.00000000E+00
  2 7633 -0.00000000E+00
  2 7634 -0.00000000E+00
  2 7635 -0.00000000E+00
  2 7716 -0.00000000E+00
  2 7717 -0.00000000E+00
  2 7718 -0.00000000E+00
  2 7719 -0.00000000E+00
  2 7724 -0.00000000E+00
  2 7725 -0.00000000E+00
  2 7904 -0.00000000E+00
  2 7905 -0.00000000E+00
  2 7939 -0.00000000E+00
  2 7940 -2.74054413E-03
  2 8241 -0.00000000E+00
  2 8242 -0.00000000E+00
  2 8243 -0.00000000E+00
  2 8438 -0.00000000E+00
  2 8439 -0.00000000E+00
  2 8473 -0.00000000E+00
  2 8474 -0.00000000E+00
  2 8497 -0.00000000E+00
  2 8498 -0.00000000E+00
  2 8533 -0.00000000E+00
  2 8534 -0.00000000E+00
  2 8535 -0.00000000E+00
  2 8536 -0.00000000E+00
  2 8788 -0.00000000E+00
  2 8789 -0.00000000E+00
  2 8790 -0.00000000E+00
  2 8793 -1.37027207E-03
  2 8816 -0.00000000E+00
  2 8837 -0.00000000E+00
  2 8838 -0.00000000E+00
  2 8839 -0.00000000E+00
  2 8840 -0.00000000E+00
  2 8881 -0.00000000E+00
  2 8882 -0.00000000E+00
  2 8883 -0.00000000E+00
  2 8884 -0.00000000E+00
  2 8885 -0.00000000E+00
  2 8886 -0.00000000E+00
  2 8887 -0.00000000E+00
  2 8888 -0.00000000E+00
  2 8889 -0.00000000E+00
  2 8890 -0.00000000E+00
  2 8891 -0.00000000E+00
  2 8892 -0.00000000E+00
  2 8895 -0.00000000E+00
  2 8896 -0.00000000E+00
  2 8897 -0.00000000E+00
  2 8898 -0.00000000E+00
  2 8907 -0.00000000E+00
  2 8908 -0.00000000E+00
  2 8919 -0.00000000E+00
  2 8920 -0.00000000E+00
  2 8921 -0.00000000E+00
  2 8922 -0.00000000E+00
  2 8923 -0.00000000E+00
  2 8924 -0.00000000E+00
  2 8970 -0.00000000E+00
  2 9030 -0.00000000E+00
  2 9107 -0.00000000E+00
  2 9108 -0.00000000E+00
  2 9168 -0.00000000E+00
  2 9169 -0.00000000E+00
  2 9170 -4.11081620E-03
  2 9172 -0.00000000E+00
  2 9220 -0.00000000E+00
  2 9222 -0.00000000E+00
  2 9225 -0.00000000E+00
  2 9226 -1.37027207E-02
  2 9256 -0.00000000E+00
  2 9265 -4.11081620E-03
  2 9286 -0.00000000E+00
  2 9287 -0.00000000E+00
  2 9306 -0.00000000E+00
  2 9307 -0.00000000E+00
  2 9308 -0.00000000E+00
  2 9348 -0.00000000E+00
  2 9349 -0.00000000E+00
  2 9393 -1.37027207E-03
  2 9395 -0.00000000E+00
  2 9398 -0.00000000E+00
  2 9399 -0.00000000E+00
  2 9400 -1.37027207E-03
  2 9401 -4.34376245E-01
  2 9402 -0.00000000E+00
  2 9403 -1.37027207E-03
  2 9414 -0.00000000E+00
  2 9415 -0.00000000E+00
  2 9424 -0.00000000E+00
  2 9425 -4.11081620E-03
  2 9561 -4.11081620E-03
  2 9593 -1.37027207E-03
  2 9594 -1.37027207E-03
  2 9610 -1.37027207E-03
  2 9614 -1.37027207E-03
  2 9615 -1.37027207E-03
  2 9616 -0.00000000E+00
  2 9618 -0.00000000E+00
  2 9619 -2.74054413E-03
  2 9645 -1.37027207E-03
  2 9646 -0.00000000E+00
  2 9647 -2.74054413E-03
  2 9648 -1.37027207E-03
  2 9669 -0.00000000E+00
  2 9671 -1.37027207E-03
  2 9672 -1.37027207E-03
  2 9673 -4.11081620E-03
  2 9674 -1.37027207E-03
  2 9675 -0.00000000E+00
  2 9676 -0.00000000E+00
  2 9677 -0.00000000E+00
  2 9678 -0.00000000E+00
  2 9679 -6.85136033E-03
  2 9680 -4.11081620E-03
  2 9681 -2.74054413E-03
  2 9691 -1.37027207E-03
  2 9692 -5.48108826E-03
  2 9693 -0.00000000E+00
  2 9694 -2.74054413E-03
  2 9695 -4.11081620E-03
  2 9696 -5.48108826E-03
  2 9697 -1.10992037E-01
  2 9699 -2.60351693E-02
  2 9709 -1.37027207E-03
  2 9710 -0.00000000E+00
  2 9711 -0.00000000E+00
  2 9712 -1.37027207E-03
  2 9713 -0.00000000E+00
  2 9714 -2.74054413E-03
  2 9719 -0.00000000E+00
  2 9720 -0.00000000E+00
  2 9735 -1.37027207E-03
  2 9736 -0.00000000E+00
  2 9737 -0.00000000E+00
  2 9738 -2.74054413E-03
  2 9745 -5.48108826E-03
  2 9746 -0.00000000E+00
  2 9747 -0.00000000E+00
  2 9748 -0.00000000E+00
  2 9749 -1.37027207E-03
  2 9750 -0.00000000E+00
  2 9751 -0.00000000E+00
  2 9752 -0.00000000E+00
  2 9753 -0.00000000E+00
  2 9754 -4.11081620E-03
  2 9755 -1.37027207E-03
  2 9756 -0.00000000E+00
  2 9757 -0.00000000E+00
  2 9758 -0.00000000E+00
  2 9759 -1.37027207E-03
  2 9760 -8.22163240E-03
  2 9761 -0.00000000E+00
  2 9762 -6.85136033E-03
  2 9763 -0.00000000E+00
  2 9764 -0.00000000E+00
  2 9765 -0.00000000E+00
  2 9766 -0.00000000E+00
  2 9767 -0.00000000E+00
  2 9768 -0.00000000E+00
  2 9769 -0.00000000E+00
  2 9770 -6.85136033E-03
  2 9773 -0.00000000E+00
  2 9774 -2.74054413E-02
  2 9839 -0.00000000E+00
  2 9840 -0.00000000E+00
  2 9849 -0.00000000E+00
  2 9850 -0.00000000E+00
  2 9851 -0.00000000E+00
  2 9852 -0.00000000E+00
  2 9853 -6.85136033E-03
  2 9854 -0.00000000E+00
  2 9855 -0.00000000E+00
  2 9856 -0.00000000E+00
  2 9857 -0.00000000E+00
  2 9858 -0.00000000E+00
  2 9859 -0.00000000E+00
  2 9860 -0.00000000E+00
  2 9861 -0.00000000E+00
  2 9862 -0.00000000E+00
  2 9870 -0.00000000E+00
  2 9871 -2.74054413E-03
  2 10089 -0.00000000E+00
  2 10090 -1.37027207E-03
  2 10109 -9.59190446E-03
  2 10110 -4.11081620E-03
  2 10111 -9.59190446E-03
  2 10112 -0.00000000E+00
  2 10113 -0.00000000E+00
  2 10114 -0.00000000E+00
  2 10115 -0.00000000E+00
  2 10116 -0.00000000E+00
  2 10117 -0.00000000E+00
  2 10118 -0.00000000E+00
  2 10119 -0.00000000E+00
  2 10120 -1.37027207E-03
  2 10121 -2.87757134E-02
  2 10122 -1.23324486E-02
  2 10123 -1.37027207E-03
  2 10124 -8.22163240E-03
  2 10125 -1.91838089E-02
  2 10126 -1.23324486E-02
  2 10127 -0.00000000E+00
  2 10128 -1.37027207E-03
  2 10129 -0.00000000E+00
  2 10130 -1.37027207E-03
  2 10131 -0.00000000E+00
  2 10132 -0.00000000E+00
  2 10133 -1.91838089E-02
  2 10134 -9.59190446E-03
  2 10137 -1.37027207E-03
  2 10138 -1.37027207E-03
  2 10139 -0.00000000E+00
  2 10140 -0.00000000E+00
  2 10141 -0.00000000E+00
  2 10142 -6.85136033E-02
  2 10143 -1.37027207E-03
  2 10144 -1.37027207E-03
  2 10146 -8.22163240E-03
  2 10147 -4.11081620E-03
  2 10148 -2.57611148E-01
  2 10149 -0.00000000E+00
  2 10150 -1.37027207E-03
  2 10151 -0.00000000E+00
  2 10152 -0.00000000E+00
  2 10153 -2.74054413E-03
  2 10154 -1.37027207E-03
  2 10155 -0.00000000E+00
  2 10156 -0.00000000E+00
  2 10158 -1.37027207E-03
  2 10159 -4.11081620E-03
  2 10160 -4.11081620E-03
  2 10161 -0.00000000E+00
  2 10162 -0.00000000E+00
  2 10163 -0.00000000E+00
  2 10164 -4.11081620E-03
  2 10166 -0.00000000E+00
  2 10168 -0.00000000E+00
  2 10170 -0.00000000E+00
  2 10171 -0.00000000E+00
  2 10172 -0.00000000E+00
  2 10174 -0.00000000E+00
  2 10175 -1.37027207E-03
  2 10176 -0.00000000E+00
  2 10178 -0.00000000E+00
  2 10179 -5.48108826E-03
  2 10180 -2.74054413E-03
  2 10181 -1.37027207E-03
  2 10182 -0.00000000E+00
  2 10183 -1.78135369E-02
  2 10184 -0.00000000E+00
  2 10186 -0.00000000E+00
  2 10187 -0.00000000E+00
  2 10188 -1.78135369E-02
  2 10189 -2.74054413E-03
  2 10190 -5.48108826E-03
  2 10191 -1.37027207E-03
  2 10192 -0.00000000E+00
  2 10194 -0.00000000E+00
  2 10208 -0.00000000E+00
  2 10212 -0.00000000E+00
  2 10229 -0.00000000E+00
  2 10230 -0.00000000E+00
  2 10233 -0.00000000E+00
  2 10266 -0.00000000E+00
  2 10278 -0.00000000E+00
  2 10289 -2.74054413E-03
  2 10290 -0.00000000E+00
  2 10331 -0.00000000E+00
  2 10332 -0.00000000E+00
  2 10333 -2.74054413E-03
  2 10334 -0.00000000E+00
  2 10335 -0.00000000E+00
  2 10336 -1.37027207E-02
  2 10337 -0.00000000E+00
  2 10338 -0.00000000E+00
  2 10339 -0.00000000E+00
  2 10340 -0.00000000E+00
  2 10341 -0.00000000E+00
  2 10342 -0.00000000E+00
  2 10343 -0.00000000E+00
  2 10345 -0.00000000E+00
  2 10346 -0.00000000E+00
  2 10347 -0.00000000E+00
  2 10348 -0.00000000E+00
  2 10353 -0.00000000E+00
  2 10359 -0.00000000E+00
  2 10360 -0.00000000E+00
  2 10361 -0.00000000E+00
  2 10362 -0.00000000E+00
  2 10425 -0.00000000E+00
  2 10426 -1.50729927E-02
  2 10435 -0.00000000E+00
  2 10439 -1.50729927E-02
  2 10445 -8.22163240E-03
  2 10446 -4.11081620E-03
  2 10453 -2.74054413E-03
  2 10454 -1.58951560E-01
  2 10457 -1.37027207E-03
  2 10527 -7.53649636E-02
  2 10541 -1.52100199E-01
  2 10575 -9.18082284E-02
  2 10629 -1.37027207E-02
  2 10786 -0.00000000E+00
  2 10816 -0.00000000E+00
  2 10817 -0.00000000E+00
  2 10914 -6.71433312E-02
  2 10916 -4.65892502E-02
  2 11017 -1.23324486E-02
  2 11112 -8.22163240E-03
  2 11113 -9.52339086E-01
  2 11444 -1.98359281E-02
  2 12063 -0.00000000E+00
  2 12195 -2.64479042E-02
  2 12213 -3.30598802E-02
  2 12214 -1.32239521E-02
  2 12300 -0.00000000E+00
  2 12307 -3.30598802E-02
  2 12308 -0.00000000E+00
  2 12374 -6.61197605E-03
  2 12506 -0.00000000E+00
  2 12508 -0.00000000E+00
  2 12513 -1.98359281E-02
  2 12514 -1.32239521E-02
  2 12521 -3.96718563E-02
  2 12522 -0.00000000E+00
  2 12523 -6.61197605E-02
  2 12524 -6.61197605E-03
  2 12525 -3.96718563E-02
  2 12526 -0.00000000E+00
  2 12527 -0.00000000E+00
  2 12528 -1.32239521E-02
  2 12529 -1.32239521E-02
  2 12550 -0.00000000E+00
  2 12553 -0.00000000E+00
  2 12558 -1.45463473E-01
  2 12559 -1.98359281E-02
  2 12560 -1.32239521E-02
  2 12575 -1.98359281E-02
  2 12747 -1.32239521E-02
  2 12758 -0.00000000E+00
  2 712 -3.88340441E-03
  2 8627 -9.70851103E-03
  2 9379 -3.88340441E-03
  2 10631 -5.82510662E-03
  2 10632 -9.70851103E-03
  2 10650 -9.70851103E-03
  2 10666 -0.00000000E+00
  2 10667 -5.82510662E-03
  2 10686 -0.00000000E+00
  2 10687 -3.88340441E-03
  2 10699 -0.00000000E+00
  2 10701 -7.76680882E-03
  2 10851 -5.82510662E-03
  2 10852 -2.33004265E-02
  2 10853 -0.00000000E+00
  2 10854 -7.76680882E-03
  2 10857 -7.76680882E-03
  2 10858 -0.00000000E+00
  2 10859 -9.70851103E-03
  2 10860 -0.00000000E+00
  2 10861 -7.76680882E-03
  2 10862 -5.82510662E-03
  2 10968 -1.94170221E-03
  2 10969 -2.71838309E-02
  2 11134 -7.76680882E-03
  2 11135 -1.55336176E-02
  2 11515 -1.94170221E-03
  2 11565 -1.94170221E-03
  2 11671 -5.82510662E-03
  2 12034 -0.00000000E+00
  2 12257 -9.70851103E-03
  2 12258 -1.74753199E-02
  2 12387 -1.16502132E-02
  2 12391 -2.33004265E-02
  2 10836 -9.99095396E-04
  2 11029 -2.72480562E-04
  2 11033 -2.83379785E-02
  2 11038 -1.81653708E-04
  2 11046 -8.17441687E-04
  2 11052 -1.27157596E-03
  2 11053 -0.00000000E+00
  2 11054 -1.18074910E-03
  2 11055 -5.44961125E-04
  2 11143 -7.26614833E-03
  2 11766 -0.00000000E+00
  2 12817 -3.63307417E-04
  2 12818 -0.00000000E+00
  2 11042 -4.79282282E-02
  2 11101 -5.68291849E-02
  2 11548 -7.53157872E-03
  2 11605 -7.53157872E-03
  2 11613 -0.00000000E+00
  2 11616 -1.02703346E-02
  2 11617 -4.79282282E-03
  2 11618 -6.84688975E-03
  2 11622 -1.36937795E-03
  2 11623 -4.79282282E-03
  2 11667 -0.00000000E+00
  2 11668 -4.10813385E-03
  2 11669 -2.05406692E-03
  2 11670 -8.21626769E-03
  2 11762 -4.79282282E-03
  2 11769 -0.00000000E+00
  2 11770 -1.71172244E-02
  2 12086 -2.28001429E-01
  2 12088 -2.05406692E-03
  2 12089 -1.43784685E-02
  2 12223 -1.91712913E-02
  2 12225 -0.00000000E+00
  2 12226 -4.79282282E-03
  2 12230 -0.00000000E+00
  2 12231 -5.47751180E-03
  2 12233 -6.16220077E-03
  2 12234 -2.05406692E-03
  2 12237 -2.73875590E-03
  2 12238 -0.00000000E+00
  2 12617 -2.73875590E-03
  2 823 -0.00000000E+00
  2 831 -6.93366681E-04
  2 844 -6.93366681E-04
  2 846 -0.00000000E+00
  2 1002 -0.00000000E+00
  2 1041 -0.00000000E+00
  2 1136 -0.00000000E+00
  2 1740 -0.00000000E+00
  2 1853 -0.00000000E+00
  2 1867 -0.00000000E+00
  2 1887 -0.00000000E+00
  2 1914 -0.00000000E+00
  2 1927 -0.00000000E+00
  2 1947 -0.00000000E+00
  2 1959 -0.00000000E+00
  2 2114 -6.42006186E-04
  2 2532 -0.00000000E+00
  2 2556 -0.00000000E+00
  2 2557 -0.00000000E+00
  2 2560 -0.00000000E+00
  2 2562 -0.00000000E+00
  2 2564 -7.70407423E-05
  2 2607 -0.00000000E+00
  2 2610 -0.00000000E+00
  2 2616 -0.00000000E+00
  2 2621 -0.00000000E+00
  2 2622 -0.00000000E+00
  2 2623 -0.00000000E+00
  2 2624 -0.00000000E+00
  2 2630 -0.00000000E+00
  2 2725 -0.00000000E+00
  2 2752 -0.00000000E+00
  2 2764 -0.00000000E+00
  2 2765 -4.36564207E-04
  2 2770 -6.93366681E-04
  2 2793 -0.00000000E+00
  2 2804 -0.00000000E+00
  2 2806 -0.00000000E+00
  2 2807 -0.00000000E+00
  2 2808 -0.00000000E+00
  2 2809 -0.00000000E+00
  2 2811 -0.00000000E+00
  2 2813 -0.00000000E+00
  2 2815 -4.36564207E-04
  2 2816 -7.70407423E-05
  2 2817 -0.00000000E+00
  2 2818 -2.56802474E-05
  2 2819 -0.00000000E+00
  2 2820 -0.00000000E+00
  2 2821 -5.39285196E-04
  2 2822 -0.00000000E+00
  2 2823 -0.00000000E+00
  2 2824 -0.00000000E+00
  2 2825 -1.28401237E-03
  2 2826 -0.00000000E+00
  2 2827 -2.56802474E-05
  2 2828 -1.02720990E-04
  2 2829 -0.00000000E+00
  2 2830 -0.00000000E+00
  2 2831 -0.00000000E+00
  2 2832 -0.00000000E+00
  2 2833 -0.00000000E+00
  2 2834 -0.00000000E+00
  2 2835 -1.02720990E-04
  2 2836 -1.02720990E-04
  2 2837 -0.00000000E+00
  2 2838 -0.00000000E+00
  2 2839 -0.00000000E+00
  2 2840 -0.00000000E+00
  2 2844 -0.00000000E+00
  2 2845 -7.24182978E-03
  2 2846 -6.93366681E-04
  2 2847 -0.00000000E+00
  2 2848 -0.00000000E+00
  2 2849 -0.00000000E+00
  2 2850 -0.00000000E+00
  2 2853 -0.00000000E+00
  2 2854 -0.00000000E+00
  2 2856 -0.00000000E+00
  2 2858 -0.00000000E+00
  2 2859 -0.00000000E+00
  2 2860 -0.00000000E+00
  2 2861 -0.00000000E+00
  2 2862 -0.00000000E+00
  2 2863 -0.00000000E+00
  2 2864 -0.00000000E+00
  2 2865 -0.00000000E+00
  2 2866 -0.00000000E+00
  2 2867 -0.00000000E+00
  2 2868 -0.00000000E+00
  2 2869 -0.00000000E+00
  2 2871 -0.00000000E+00
  2 2872 -0.00000000E+00
  2 2873 -0.00000000E+00
  2 2874 -0.00000000E+00
  2 2875 -0.00000000E+00
  2 2877 -0.00000000E+00
  2 2879 -6.93366681E-04
  2 2880 -0.00000000E+00
  2 2881 -6.93366681E-04
  2 2884 -6.93366681E-04
  2 2885 -7.24182978E-03
  2 2887 -0.00000000E+00
  2 2888 -2.95322846E-03
  2 2889 -0.00000000E+00
  2 2890 -0.00000000E+00
  2 2891 -0.00000000E+00
  2 2893 -0.00000000E+00
  2 2900 -0.00000000E+00
  2 2901 -6.93366681E-04
  2 2904 -0.00000000E+00
  2 2905 -4.10883959E-04
  2 2920 -0.00000000E+00
  2 2921 -6.93366681E-04
  2 2922 -6.93366681E-04
  2 2994 -0.00000000E+00
  2 2995 -0.00000000E+00
  2 3004 -0.00000000E+00
  2 3005 -0.00000000E+00
  2 3006 -2.95322846E-03
  2 3007 -2.95322846E-03
  2 3008 -0.00000000E+00
  2 3009 -0.00000000E+00
  2 3014 -0.00000000E+00
  2 3015 -0.00000000E+00
  2 3020 -0.00000000E+00
  2 3021 -0.00000000E+00
  2 3022 -0.00000000E+00
  2 3023 -0.00000000E+00
  2 3024 -7.24182978E-03
  2 3025 -0.00000000E+00
  2 3141 -0.00000000E+00
  2 3182 -0.00000000E+00
  2 3183 -0.00000000E+00
  2 3346 -6.93366681E-04
  2 3347 -6.93366681E-04
  2 3423 -0.00000000E+00
  2 3424 -0.00000000E+00
  2 3435 -0.00000000E+00
  2 3437 -0.00000000E+00
  2 3438 -0.00000000E+00
  2 3439 -0.00000000E+00
  2 3440 -6.93366681E-04
  2 3441 -2.95322846E-03
  2 3442 -0.00000000E+00
  2 3443 -0.00000000E+00
  2 3444 -1.02720990E-04
  2 3445 -0.00000000E+00
  2 3446 -0.00000000E+00
  2 3447 -0.00000000E+00
  2 3448 -0.00000000E+00
  2 3449 -0.00000000E+00
  2 3450 -0.00000000E+00
  2 3456 -0.00000000E+00
  2 3458 -0.00000000E+00
  2 3459 -0.00000000E+00
  2 3460 -0.00000000E+00
  2 3461 -0.00000000E+00
  2 3462 -6.93366681E-04
  2 3463 -0.00000000E+00
  2 3464 -0.00000000E+00
  2 3578 -0.00000000E+00
  2 3579 -0.00000000E+00
  2 3580 -0.00000000E+00
  2 3778 -6.93366681E-04
  2 3779 -6.93366681E-04
  2 3780 -6.93366681E-04
  2 3848 -0.00000000E+00
  2 3849 -0.00000000E+00
  2 3853 -7.24182978E-03
  2 3855 -1.02720990E-04
  2 3856 -0.00000000E+00
  2 3857 -0.00000000E+00
  2 3858 -0.00000000E+00
  2 3860 -6.93366681E-04
  2 3861 -2.95322846E-03
  2 3862 -2.95322846E-03
  2 3863 -7.24182978E-03
  2 3864 -2.95322846E-03
  2 3865 -1.02720990E-04
  2 3866 -6.93366681E-04
  2 3867 -0.00000000E+00
  2 3868 -0.00000000E+00
  2 3869 -0.00000000E+00
  2 3870 -0.00000000E+00
  2 3871 -0.00000000E+00
  2 3872 -0.00000000E+00
  2 3875 -0.00000000E+00
  2 3876 -0.00000000E+00
  2 3878 -0.00000000E+00
  2 3879 -0.00000000E+00
  2 3885 -0.00000000E+00
  2 3886 -0.00000000E+00
  2 3887 -0.00000000E+00
  2 3888 -0.00000000E+00
  2 3980 -0.00000000E+00
  2 3981 -0.00000000E+00
  2 3982 -0.00000000E+00
  2 4102 -6.93366681E-04
  2 4103 -6.93366681E-04
  2 4134 -6.93366681E-04
  2 4135 -6.93366681E-04
  2 4136 -6.93366681E-04
  2 4137 -6.93366681E-04
  2 4138 -6.93366681E-04
  2 4161 -0.00000000E+00
  2 4162 -0.00000000E+00
  2 4178 -0.00000000E+00
  2 4179 -0.00000000E+00
  2 4184 -0.00000000E+00
  2 4186 -6.93366681E-04
  2 4187 -0.00000000E+00
  2 4188 -0.00000000E+00
  2 4189 -1.02720990E-04
  2 4190 -0.00000000E+00
  2 4191 -0.00000000E+00
  2 4192 -0.00000000E+00
  2 4197 -7.24182978E-03
  2 4198 -0.00000000E+00
  2 4199 -0.00000000E+00
  2 4200 -0.00000000E+00
  2 4201 -0.00000000E+00
  2 4202 -0.00000000E+00
  2 4207 -0.00000000E+00
  2 4208 -0.00000000E+00
  2 4209 -0.00000000E+00
  2 4274 -0.00000000E+00
  2 4275 -0.00000000E+00
  2 4354 -6.93366681E-04
  2 4355 -6.93366681E-04
  2 4363 -6.93366681E-04
  2 4364 -6.93366681E-04
  2 4365 -6.93366681E-04
  2 4366 -6.93366681E-04
  2 4367 -6.93366681E-04
  2 4371 -6.93366681E-04
  2 4372 -6.93366681E-04
  2 4373 -6.93366681E-04
  2 4374 -6.93366681E-04
  2 4394 -0.00000000E+00
  2 4396 -0.00000000E+00
  2 4397 -0.00000000E+00
  2 4398 -0.00000000E+00
  2 4399 -0.00000000E+00
  2 4400 -0.00000000E+00
  2 4401 -0.00000000E+00
  2 4406 -0.00000000E+00
  2 4462 -6.93366681E-04
  2 4463 -6.93366681E-04
  2 4476 -6.93366681E-04
  2 4480 -6.93366681E-04
  2 4481 -6.93366681E-04
  2 4482 -6.93366681E-04
  2 4483 -6.93366681E-04
  2 4484 -6.93366681E-04
  2 4487 -6.93366681E-04
  2 4488 -6.93366681E-04
  2 4489 -6.93366681E-04
  2 4490 -6.93366681E-04
  2 4491 -6.93366681E-04
  2 4492 -6.93366681E-04
  2 4493 -6.93366681E-04
  2 4494 -6.93366681E-04
  2 4497 -6.93366681E-04
  2 4498 -6.93366681E-04
  2 4499 -6.93366681E-04
  2 4500 -6.93366681E-04
  2 4501 -6.93366681E-04
  2 4512 -0.00000000E+00
  2 4513 -0.00000000E+00
  2 4533 -6.93366681E-04
  2 4544 -6.93366681E-04
  2 4545 -6.93366681E-04
  2 4546 -6.93366681E-04
  2 4547 -6.93366681E-04
  2 4548 -6.93366681E-04
  2 4552 -6.93366681E-04
  2 4553 -6.93366681E-04
  2 4554 -6.93366681E-04
  2 4555 -6.93366681E-04
  2 4556 -6.93366681E-04
  2 4557 -6.93366681E-04
  2 4558 -6.93366681E-04
  2 4559 -6.93366681E-04
  2 4560 -6.93366681E-04
  2 4561 -6.93366681E-04
  2 4562 -6.93366681E-04
  2 4576 -6.93366681E-04
  2 4577 -6.93366681E-04
  2 4578 -6.93366681E-04
  2 4579 -6.93366681E-04
  2 4581 -6.93366681E-04
  2 4582 -6.93366681E-04
  2 4583 -6.93366681E-04
  2 4584 -6.93366681E-04
  2 4585 -6.93366681E-04
  2 4586 -6.93366681E-04
  2 4587 -6.93366681E-04
  2 4588 -6.93366681E-04
  2 4589 -6.93366681E-04
  2 4590 -6.93366681E-04
  2 4591 -6.93366681E-04
  2 4598 -6.93366681E-04
  2 4599 -6.93366681E-04
  2 4600 -6.93366681E-04
  2 4601 -6.93366681E-04
  2 4602 -6.93366681E-04
  2 4603 -6.93366681E-04
  2 4604 -6.93366681E-04
  2 4607 -6.93366681E-04
  2 4608 -6.93366681E-04
  2 4609 -6.93366681E-04
  2 4610 -6.93366681E-04
  2 4611 -6.93366681E-04
  2 4612 -6.93366681E-04
  2 4613 -6.93366681E-04
  2 4614 -6.93366681E-04
  2 4615 -6.93366681E-04
  2 4648 -1.02720990E-04
  2 4649 -6.93366681E-04
  2 4727 -6.93366681E-04
  2 4728 -6.93366681E-04
  2 4732 -6.93366681E-04
  2 4733 -6.93366681E-04
  2 4735 -6.93366681E-04
  2 4736 -6.93366681E-04
  2 4737 -6.93366681E-04
  2 4738 -6.93366681E-04
  2 4742 -6.93366681E-04
  2 4750 -6.93366681E-04
  2 4766 -1.02720990E-04
  2 4767 -1.02720990E-04
  2 4772 -6.93366681E-04
  2 4775 -6.93366681E-04
  2 5980 -0.00000000E+00
  2 5982 -0.00000000E+00
  2 6077 -0.00000000E+00
  2 6079 -0.00000000E+00
  2 6153 -0.00000000E+00
  2 6154 -0.00000000E+00
  2 6178 -6.93366681E-04
  2 6179 -6.93366681E-04
  2 6266 -6.93366681E-04
  2 6268 -6.93366681E-04
  2 6416 -0.00000000E+00
  2 6417 -0.00000000E+00
  2 6473 -0.00000000E+00
  2 6474 -0.00000000E+00
  2 6764 -0.00000000E+00
  2 6765 -0.00000000E+00
  2 6872 -0.00000000E+00
  2 6873 -0.00000000E+00
  2 6896 -0.00000000E+00
  2 6897 -0.00000000E+00
  2 6929 -0.00000000E+00
  2 6930 -1.02720990E-04
  2 6993 -0.00000000E+00
  2 6994 -0.00000000E+00
  2 6995 -6.93366681E-04
  2 6996 -6.93366681E-04
  2 7038 -0.00000000E+00
  2 7039 -0.00000000E+00
  2 7040 -0.00000000E+00
  2 7120 -0.00000000E+00
  2 7121 -0.00000000E+00
  2 7186 -0.00000000E+00
  2 7187 -0.00000000E+00
  2 7188 -0.00000000E+00
  2 7189 -0.00000000E+00
  2 7190 -0.00000000E+00
  2 7191 -0.00000000E+00