# File generated by Flopy version 3.9.1 on 02/09/2026 at 23:33:23.
BEGIN options
END options

BEGIN griddata
  strt  LAYERED
    INTERNAL  FACTOR  1.0
           0.37800035       1.86875478       1.89092027       1.89118928       1.89142828       1.89111102       1.88746301       1.89111867       1.88344323       1.89012233       1.89136135       1.88955511       1.89171200       1.89137703       1.89251896       1.89236784       1.90639423       1.89228275       1.89140251       1.85055229
           1.89128800       1.89128162       1.89114790       1.89132821       1.88953974       1.87677918       1.89004638       1.89129933       1.89127521       1.89125445       1.89166436       1.89140761       1.89125431       1.89132124       1.88553550       1.89183662       1.89132636       1.89149704       1.89147746       1.89120851
           1.88919047       1.89146550       1.83874281       1.84274961       1.84245439       1.84225161       1.84291241       1.84114174       1.85057831       1.84292938       1.84017700       1.84267730       1.84951906       1.84438275       1.84292912       1.84376693       1.85095378       1.84165862       1.84328341       1.84810926
           1.80548953       0.77626280       1.89235534       1.89268906       1.89276606       1.90305808       1.89266995       1.89248175       1.89258957       1.89271108       0.37150652       1.89280362       1.85106426       1.85094687       1.85381952       1.85115052       1.85779952       1.80609925       1.87642532       1.87648311
           0.34481208       1.85580877       1.89476675       1.89773824       1.89258245       1.87671422       1.89254571       0.75724054       1.87794433       1.87558881       1.87844985       1.87827921       1.87830529       1.87839554       1.86008126       1.87836058       1.87792650       1.87825120       1.87847921       1.88019474
           1.87858623       1.87849772       1.87854478       1.87871276       1.87841257       1.87880061       1.87831216       1.87598864       1.87891080       1.87867718       1.87870993       1.87876063       1.87901198       1.87887536       1.87893781       1.87894715       1.87875032       1.87892085       1.87897453       1.87922512
           1.88699539       1.87928115       1.87923661       1.87922395       1.87934983       1.87939861       1.87920751       1.87918474       1.87895623       1.87887286       1.87868821       1.87937269       1.88815473       1.88941300       1.88931184       1.88931939       1.88952083       1.88949755       1.88039653       1.88933653
           1.89121445       1.89112138       1.89114621       1.89143234       1.88945586       1.88979467       1.88929040       1.88975923       1.88939147       1.89133242       1.88953425       0.41168546       1.88938873       1.88795854       1.88946019       1.88943588       1.88940729       1.88919854       1.88945099       1.88949829
           1.87999556       1.88204686       1.88939266       1.88944314       1.88956884       1.88953362       1.88944798       1.88940780       1.88948188       1.88963601       1.88944726       1.88952370       1.89379745       1.88461204       0.79526637       1.89114162       1.89243736       1.80601525       1.87372971       1.88932026
           1.74087088       1.84009517       1.76896297       1.76922949       1.76994494       1.76882476       1.76030472       1.87396330       1.76831597       1.74805027       1.76791015       1.71369770       1.76715566       1.76832338       1.76929693       1.76902025       1.76741626       1.76869981       1.76919967       0.53502138
           1.77147079       1.77069296       1.77068746       1.84802457       1.77110925       1.77065826       1.76997109       1.78831809       1.76968741       1.76988712       1.77144012       1.78480780       1.76997973       1.77005749       1.77071491       1.77121353       1.77042623       1.77117529       1.77121778       1.77059574
           1.85493274       1.77006866       1.75326468       1.71440091       1.77578750       1.76758185       1.78419200       1.78186607       1.78114024       1.78150151       1.70403135       1.70556181       1.73998290       1.55035567       1.78580298       1.78225406       1.78124314       1.78492667       1.78419510       1.78618250
           1.78611681       1.70697367       1.78233507       1.78561053       1.78573705       1.78710951       1.78765174       1.78614925       1.78652948       1.78580068       1.78963666       1.78713256       1.78678871       1.78623984       1.78083222       1.78775252       1.78758869       1.78733352       1.78822560       1.78891213
           1.78779388       1.78853588       1.78987624       1.78628096       1.78434578       1.31673261       1.77194414       1.57673471       1.87697302       1.87691813       1.87784018       1.88150058       1.87792394       1.87842933       1.87834239       1.87464139       1.85703971       1.85137669       1.85705915       1.85672323
           1.88165129       1.89610116       1.88196860       1.88152235       1.88166680       1.89641754       1.87700310       1.85452864       1.89771844       1.89758800       1.80080955       1.89730424       1.89769569       1.89773471       1.89833812       1.89815303       0.31382467       1.89796621       1.89654014       1.89668070
           1.88201532       1.89656576       1.89696249       1.89674208       1.89694466       1.89764848       1.89708383       1.85752346       1.89787306       1.89623885       1.89480273       1.89773216       1.85702497       1.85645360       1.85667674       1.85678496       1.78870554       1.78853608       1.85306380       1.85711701
           1.78787918       1.85699257       1.78797833       1.78828933       1.78892088       1.78622647       1.78921632       1.78899029       1.85665902       1.78905644       1.80534681       1.85631708       1.85688355       1.85695057       1.85748868       1.85739777       1.85718066       1.85697128       1.85742774       1.85729264
           1.85667156       1.85744016       2.03012541       1.85758636       1.98703495       1.85734486       2.07182053       1.85775812       2.28518798       2.12716548       1.89678195       2.05579807       1.94909658       1.85687705       1.85702420       1.78979687       1.89912009       1.74516714       1.87685698       1.63736214
           1.87910283       1.80612307       1.84163771       1.85210005       1.85256706       1.84384872       1.85243608       1.85238686       1.84908238       1.85238924       1.85246660       1.85244140       1.85257067       1.85242941       1.85250767       1.85254707       1.85258246       1.85249478       1.85248780       1.85270287
           1.85213590       1.85263226       1.85256642       1.85158197       1.80586730       1.84770528       1.80629956       1.85040911       1.84198881       1.85270181       1.85260097       1.85257177       1.84651154       1.85264609       1.85261811       1.85264170       1.85276540       1.85280197       1.85267252       1.85274325
           1.80634519       1.84956455       0.40785696       1.84607391       1.85276182       1.85270144       1.85278129       1.85272433       1.80694968       1.85279385       1.85272915       1.80700385       1.84753226       0.51513865       1.84460300       1.84983067       1.80695515       1.80698061       1.85279371       1.80708505
           1.80707262       1.80710764       1.80696299       1.85276961       1.80700706       1.80704960       1.80702000       1.80702483       1.80705191       1.80707854       1.80701266       1.80711698       1.80702210       1.80711185       1.80710730       1.80708786       1.80714836       1.80713677       1.80711928       1.80707839
           1.80715973       1.80714715       1.80703590       1.80686381       1.80711961       1.80712462       1.80689703       1.80714089       1.80645705       1.59162733       1.80255240       1.79897266       1.80253376       1.80238275       1.80236567       1.80235805       1.80232985       1.80240028       1.80247769       1.80222320
           1.80279454       1.80245848       1.80240708       1.80246194       1.80245648       1.80238955       1.80250525       1.80244054       1.80237819       1.80016216       1.80219889       1.80226037       1.80219506       1.80231185       1.79928177       1.80136670       1.87176268       1.80157274       1.79974657       1.80224384
           1.80226634       1.80217584       1.80231419       1.80224073       1.80222287       1.80227401       1.80235186       1.80223104       1.80226295       1.80229120       1.87586921       1.80173727       0.22720974       1.80251653       1.80504436       1.80523659       1.80521322       1.80518750       1.80513305       1.80517116
           1.80517077       1.80518649       1.80711253       1.80565865       1.80718639       1.80710353       1.80523990       1.80692956       1.80526041       1.80527186       1.80520063       1.80528173       1.80530681       1.81333412       1.80501573       1.80498622       1.80515041       1.80488675       1.80925612       1.80495476
           1.80891611       1.80497853       1.80509569       1.81095605       1.80515428       1.80512766       1.80502100       1.80517885       1.80520195       1.80495559       1.81067098       1.80506418       1.80511375       1.80511498       1.80497438       1.80318707       1.85107715       1.80713565       1.81025096       1.80252289
           0.74770655       1.81154851       1.85409308       1.85402336       1.85410264       1.85404581       1.85412105       1.85415859       1.86919081       1.85426025       1.85375514       1.86957986       1.85426983       1.80577268       1.85434421       1.85413061       1.85437324       1.85431590       1.85427263       1.85437373
           1.85446982       1.84964891       1.85437834       1.85430375       1.85451963       1.85428229       1.85440365       1.85440547       1.85422072       1.85458230       1.85462137       1.85150851       1.85452730       1.85465182       1.85445798       1.85459990       1.85466595       1.85458134       1.85456885       1.85448429
           1.85811490       1.85420794       1.86871513       1.85479288       1.87510565       1.87511715       1.87411790       1.87302138       1.87513575       1.85893936       1.87837477       1.87519197       1.90443446       1.87915747       1.87823175       1.87909766       1.87586613       2.22762821       2.13180588       1.93662054
           1.87899260       2.21243624       1.87532236       1.80738285       1.86006529       1.86006059       1.86010564       1.85999130       1.86005547       1.86004704       1.86132810       1.86011396       1.86002673       1.86009719       1.87597816       1.86009287       1.85998773       1.86010895       1.86000699       1.86003284
           1.89278525       1.88794603       1.85999282       1.86020914       1.86005908       1.87338896       1.85886880       2.22264414       1.85469487       0.32034082       1.85138891       1.85027992       1.85142298       1.85143009       1.85147298       1.85144208       1.85141598       1.85145161       1.85137053       1.85138846
           1.85150303       1.85147109       1.85140683       1.85137636       1.85150490       1.85152418       1.85137268       1.85445415       1.85145863       1.85118137       1.81154791       1.81153001       1.81167312       1.80721588       1.81155725       1.81160756       1.80718065       1.85987021       1.81164147       1.81167439
           1.81163222       1.81160537       1.81169826       1.81169167       1.81162866       1.81164262       1.81170944       1.81172173       1.81165771       1.81170284       1.81159374       1.85269411       1.81158313       1.81170987       1.85980039       1.85998027       1.85984088       1.85980309       1.85451825       1.85542703
           1.85985413       1.85993584       1.85998711       1.85999800       1.85989772       1.89546938       2.10040647       2.10705742       2.04150322       2.13696231       1.85997682       1.86016024       1.85145615       1.85123506       1.81167228       1.81166855       1.81168024       1.81168800       1.81169290       1.81164678
           1.81163782       1.81167058       1.81174925       1.86525764       2.00382059       1.89896365       1.89131490       1.91672595       1.87866953       1.90743941       1.87459493       1.95144595       1.89254369       1.99006185       1.91970207       1.86028849       1.81167394       0.75705023       1.81165112       1.85003479
           0.62488671       2.41058162       0.86650812       1.50325841       1.80595947       2.31836635       0.57190188       0.33610680       0.57125344       0.30854120       0.54169851       0.54274312       0.78179465       0.28916984       1.85759811       1.74735548       0.54367803       0.54358571       1.87434634       0.54357086
           0.54345878       1.80746000       0.54431558       1.76821103       0.45981087       0.62494978       1.80744903       1.81283823       0.48392284       0.47020562       0.63241020       0.40250131       0.46101069       1.87454562       0.54237400       0.45669425       1.75634435       0.49909733       0.47826043       0.40564269
           0.46581401       0.46798683       1.88401314       0.60630038       0.76886394       1.80779478       1.85027299       0.28501453       0.62991220       0.69065709       0.71747959       0.70164015       0.70261014       0.70970123       0.70361075       0.69932862       0.71741855       0.70811626       0.44484997       0.44362622
           0.73825666       0.72363200       0.73779296       0.73395212       0.73301752       0.55460562       0.71260663       0.73326164       0.76169692       0.76609249       1.73585666       0.75179516       0.77144848       0.76292265       0.78181043       0.76765253       0.76719713       0.26681485       0.76057803       0.75988954
           0.78386210       1.80220321       0.74480554       0.74939163       0.64942683       0.73135723       0.74665888       1.80588478       0.76607285       1.87360303       0.40156295       0.56111705       0.48143976       0.62444629       0.46627740       0.34347061       1.47833284       1.80574129       0.50237150       0.48775770
           0.44230986       1.65986915       2.20756876       1.80674736       0.45662536       0.45876879       0.67263836       1.50036676       0.48390793       0.48412000       2.48386773       0.47610358       0.52736391       0.45948747       0.55270909       1.63555763       0.43784118       0.49978634       1.52907181       1.59041232
           1.51105066       1.80658139       1.88313641       2.47699621       0.54178072       2.86058461       0.38311276       0.52531836       0.52187353       0.25587696       1.60687508       0.51938249       1.61057212       0.52351672       1.66375390       0.50431440       0.33353691       0.52129353       0.45631964       0.46487405
           0.65903824       0.49118762       0.77184906       0.55891870       0.51748688       0.66143524       0.67529088       0.68264085       0.64589568       1.75820679       0.55798987       0.52802817       0.51378378       0.50925035       0.53270421       0.73532438       0.49592043       1.80767342       0.28556327       0.70363318
           0.44273514       0.50567747       0.57695636       0.28466301       0.48561190       0.47614187       1.60762394       0.47678447       0.62761067       0.47720743       1.64391620       0.64478768       1.83786867       1.56699886       1.74251329       0.50794416       1.47078745       0.45125529       1.68117596       0.49385773
           1.46862480       0.47366867       1.52767217       1.80943848       1.85450375       0.67986824       0.50820330       0.63117546       0.49034162       0.50435827       0.45811622       0.47213657       0.50425508       0.51991047       0.51878921       0.50145990       2.17745444       1.87972553       0.44953472       0.50090080
           0.43702639       0.47450161       0.44093895       0.44259761       0.44593331       0.26789068       0.41680014       0.42872420       0.40573241       0.40757329       0.39946608       0.41516390       0.43327476       0.39741329       0.43294704       0.43445220       0.42009234       1.86816509       0.43132696       0.41694592
           0.39983356       0.41915594       0.39557098       0.42234792       0.40305606       0.43301076       0.41270840       0.40173019       1.88523727       0.42077174       0.41977558       0.38592245       1.59754957       0.37808539       0.33270520       0.53802373       1.79961812       0.44141634       0.42376831       0.73966501
           1.79933710       0.77729969       0.42089170       0.42072294       2.71945464       0.42765890       0.41892015       1.49387110       0.41059502       0.40711548       1.79940038       0.42285783       0.40759214       0.41915670       0.40797725       2.26071520       0.40404262       0.40771052       1.48600234       1.86581878
           0.40613653       2.04524781       0.40272408       0.39898721       0.40707130       0.40416661       0.40456658       0.37618843       0.40821431       0.55706092       0.40164887       1.80066693       0.39336323       1.54697924       0.40667937       0.40907290       0.37113960       0.33913735       0.34277639       0.34558043
           0.40631121       2.73463221       0.34234515       0.40371124       0.37669100       0.33547447       0.33148714       0.33423770       0.32741921       0.33174036       0.40790949       0.33436649       0.33934156       0.43733492       0.31892816       0.32332851       0.30903221       0.31010640       0.30040329       0.31554275
           0.30142729       0.30234073       0.32427055       0.30098257       0.30134134       0.31707217       0.30008251       0.32001938       0.28799518       0.30021337       0.32926146       0.28724352       0.30001841       0.32470283       0.30034310       0.33316637       0.30695022       0.28516062       1.32347447       0.33565604
           2.75346523       0.33238110       0.32486985       1.79985178       0.32744392       1.34340324       0.31956730       0.32516089       0.30663615       1.80127984       0.29552255       0.30829859       0.29443815       0.29878457       0.32275525       1.79998166       0.29856507       1.80076778       1.81659810       0.37987406
           0.28964276       0.68439460       0.29056385       0.29299553       0.28981440       0.29018872       0.29259018       0.29163360       0.71089909       0.28509997       0.28501042       1.80111781       0.28500918       0.28500733       0.28493480       1.86760613       0.29041699       0.67308439       0.29457117       1.80236792
           0.28574409       1.87559699       0.28542039       1.80385634       0.30807239       1.70675652       0.27863713       0.68089698       0.26777633       0.26130075       0.30942678       0.29543103       1.56102443       0.28486362       1.56916813       0.27856427       0.28605382       0.26320891       1.81344457       1.80209482
           0.24655173       0.27620853       0.28759029       0.24501889       0.26651301       0.26832789       1.21202397       1.63275401       0.25018986       0.25367580       1.35635175       1.95467981       0.21017420       0.15392141       1.78918592       0.16624929       0.24859354       0.24519515       0.26044767       0.25803785
           0.18599210       0.22980627       0.26404955       0.25928362       0.24695044       0.24876711       0.33034857       0.25248356       1.66825681       0.25181184       1.83104943       0.24793711       0.24500645       0.26236447       0.25890987       2.79420346       0.24992440       0.39159333       2.91597090       0.26040196
           0.26363922       1.63684881       0.26665765       1.55242177       0.26658931       0.71028399       0.26486797       1.80703490       0.26420062       0.65082236       0.26666675       0.26545878       0.26729277       1.79272934       0.26166932       0.26657997       0.26110432       0.26750707       0.26329130       0.26480831
           0.26782255       0.24211647       0.26782312       0.41120602       0.26723353       0.24626722       1.87473687       0.72360224       1.37923649       0.25160563       0.22934105       0.26628947       0.25673356       1.06142566       0.48217702       0.51497206       0.22749176       0.17494430       0.60830848       0.27256109
           0.29637273       0.37324660       0.08421147       0.23514120       0.22958751       0.23012463       0.22985916       1.87709914       0.55366715       0.50404417       0.49983685       0.48164132       0.22730289       0.27097253       0.36875078       0.19850470       0.46286460       0.30493934       0.33237897       0.39794395
           0.37539599       0.34145856       0.37124178       0.37570183       0.08900696       0.37561476       0.40213347       0.40554396       0.41196326       0.39349747       0.42029390       0.41308897       0.39004368       0.39784490       0.41103056       0.38075468       0.35065440       0.37547662       0.36166926       0.42230130
           0.36419929       0.22891345       0.39977803       0.22885279       0.44591604       0.51554994       0.44442711       0.26795144       0.41807682       0.51172680       0.51535244       0.32836850       0.96817689       0.50686217       0.41699080       0.33477203       0.55844573       0.48221964       0.44868894       0.22963356
           0.47438516       0.45340282       0.47426177       0.44806328       0.45194630       0.45293191       0.47623275       0.47494271       0.44997565       0.47463141       0.47377879       0.47472745       0.47306009       0.47100009       0.46899981       0.47584592       0.48162216       0.47437811       0.48212857       0.45812462
           0.48340994       0.47503920       0.42321631       0.44901492       0.47437996       0.23050616       2.15670456       0.68146704       0.34580917       1.78750155       0.37847509       0.37941840       0.38324646       1.79051264       0.37826402       0.34603576       0.34431654       1.50275419       0.32470228       0.64305344
           1.84598882       1.47549835       0.39683669       0.26578423       1.80163960       0.63596537       0.40268256       0.44760002       0.44487813       0.42825250       0.43592405       0.42107174       0.46734963       0.48137466       0.46048255       0.47339744       0.38705851       0.38009602       0.47304565       0.47267617
           0.46269996       1.80448711       0.39204021       0.46666861       0.38666600       1.47839982       0.43842946       1.48632311       0.39617230       1.80042858       0.46150122       1.80428215       0.60499338       0.44000327       1.64384920       0.25567634       0.71285565       0.34240602       2.93709360       0.33615454
           0.33373526       1.80160026       1.51408227       0.33193264       0.33433762       0.33899650       0.34128604       1.79919914       0.34030546       0.34356901       0.34177578       1.78993943       0.34307194       0.34003345       1.87958157       0.75610996       0.34545646       0.34576405       1.85440086       0.34447059
           0.34462882       0.34630155       0.34324957       0.34206778       0.34428480       0.63087158       0.34601348       0.34208237       0.34616720       0.34531569       1.60334939       1.80847548       0.49717979       1.74688006       0.75969858       1.88062037       0.38748493       0.24510456       0.34297719       0.40390625
           0.30919065       0.37405175       0.34860496       0.32440527       0.38518039       0.34643223       0.36749239       0.33647696       0.40599117       0.38480647       0.39701731       0.35313620       0.30931754       0.33604119       0.31391121       0.74060409       0.31736894       0.36388547       0.58218876       0.39026432
           0.56231372       0.55263730       0.62177325       0.58878842       0.65824900       0.61490267       0.33000228       0.70410818       0.38769921       0.30002274       0.42207890       0.33229863       0.66174101       0.43833043       0.73137700       0.45986453       0.68820075       0.61767080       0.72240838       0.44129538
           0.47457540       0.44262954       0.76088119       0.33572939       0.33382975       0.36394767       0.40920992       0.34307310       0.33428803       2.23435171       0.43282948       0.41750918       0.46775791       1.85332559       0.61670726       0.62691694       0.62353233       0.33735321       0.52751260       1.50924232
           0.44613879       1.80024957       0.62502496       1.80221558       2.59297112       0.63209934       0.65638577       0.70185468       0.64179522       0.63971975       0.63274334       0.69480542       0.50458294       0.62479528       0.69626789       2.27926119       1.84461652       0.62894553       0.63742316       1.81444821
           0.65132691       0.64216712       0.74686467       0.76157099       0.59563169       1.54917956       0.74966026       2.20037148       0.46727025       1.87072136       0.65328750       1.86566425       1.73507498       0.65159293       3.09469108       0.76161470       1.80884528       1.80758283       1.80825063       1.80786760
           1.80962773       1.80832271       1.80672384       1.80830268       1.80845567       1.80833309       1.80840789       1.80845738       1.80836364       1.80844216       1.80835240       1.80839159       1.80841408       1.80837050       1.80839861       1.80847090       1.80785237       1.80684716       1.80805294       1.80811364
           1.80806046       1.80806883       1.80799118       1.80815574       1.80828690       1.80826718       1.80814867       1.80833446       1.80825772       1.80823028       1.80945231       1.80812892       1.80820879       1.80827281       1.80946522       1.80808651       1.80514390       1.80739025       1.80995783       1.80983494
           1.80969244       1.80850690       1.80979516       1.80980994       1.80976652       1.80980727       1.80986444       1.80849487       1.80984593       1.80997844       1.80989323       1.80990380       1.80990196       1.81000223       1.80994369       1.80994881       1.80975549       1.80985664       1.80952640       1.80953755
           1.80957066       1.80958356       1.80951758       1.80947485       1.80944404       1.80949995       1.80943096       1.80955216       1.80962381       1.80975969       1.80969369       1.80959662       1.80957950       1.80946902       1.80957009       1.80966719       1.80971200       1.80964777       1.80782339       1.80957783
           1.80977514       1.81337713       1.80812642       1.81480619       1.80775118       1.80765814       1.80772414       1.80774893       1.80781168       1.80780974       1.80770174       1.80777536       1.80777427       1.80775951       1.80775173       1.80782869       1.80776402       1.80779230       1.80784096       1.80783024
           1.80776852       1.80784308       1.80540889       1.80783298       1.80780038       1.80775038       1.80782275       1.80777985       1.80559907       1.87554672       1.80633702       1.80777444       1.80779617       1.80780369       1.80778209       1.80777516       1.80786669       1.80783523       1.80664536       1.80781843
           1.80798827       1.80778708       1.80776656       1.80960138       1.80776399       1.80781819       0.42338786       1.80748021       1.80809890       1.80803058       1.80803032       1.80798763       1.80796785       1.80792029       1.80800264       1.80790224       1.81363831       1.81098906       1.81423894       1.81177527
           1.80802189       1.80806797       1.80799506       1.80805906       1.80915174       1.74435227       1.80790424       1.80805056       1.80784188       1.80777752       1.80794847       1.80782713       1.80781209       1.80783169       1.80775380       1.80781378       1.80775062       1.80774851       1.81237295       1.80828018
           1.80764350       0.25072774       1.87557226       0.25414759       1.80704315       0.37915403       1.80728774       0.24809592       1.80684030       1.80787585       1.80781620       1.81330484       1.81249360       1.80661064       1.84282950       1.81430546       1.81431886       1.81427382       1.81428875       1.81428240
           1.81433225       1.81433529       1.81427641       1.81433643       1.81429793       1.81430157       1.81431166       1.81433844       1.81426423       1.81427176       1.81431788       1.81423899       1.81426192       1.81430181       1.81430325       1.81432687       1.81421189       1.81423356       1.81458670       1.81476755
           1.81455320       1.81460323       1.81269452       1.81465153       1.81458775       1.81460886       1.81464928       1.81437028       1.81461930       1.81463430       1.81464666       1.81464799       1.81462304       1.81466720       1.81723362       1.81435957       1.81422841       1.81436373       0.80323367       0.74935514
           0.79489349       0.82398565       0.79085665       0.83460374       1.90724235       0.77585995       1.81510951       0.77873120       0.78093883       1.84333647       0.79535378       0.78816433       0.80624117       0.61829203       0.79399901       1.80609628       0.72794058       0.78028726       0.86892879       1.84295002
           0.87488770       0.84863484       0.77811941       1.84054529       1.84571842       0.87821019       1.81634145       0.86680466       0.86210684       0.86449297       0.87515527       0.81577374       0.81091618       0.82229453       0.84309778       0.79589144       0.87273396       0.76814328       2.26179822       0.80535581