# File generated by Flopy version 3.9.1 on 02/09/2026 at 23:33:23.
BEGIN options
  SAVE_FLOWS
END options

BEGIN dimensions
  MAXBOUND  3460
END dimensions

BEGIN period  1
  1 2 0.00000000E+00
  1 62 0.00000000E+00
  1 71 0.00000000E+00
  1 152 0.00000000E+00
  1 175 0.00000000E+00
  1 268 0.00000000E+00
  1 288 0.00000000E+00
  1 630 0.00000000E+00
  1 733 0.00000000E+00
  1 750 0.00000000E+00
  1 760 0.00000000E+00
  1 763 0.00000000E+00
  1 771 0.00000000E+00
  1 774 0.00000000E+00
  1 783 0.00000000E+00
  1 785 0.00000000E+00
  1 786 0.00000000E+00
  1 790 0.00000000E+00
  1 794 0.00000000E+00
  1 797 0.00000000E+00
  1 805 0.00000000E+00
  1 807 0.00000000E+00
  1 821 0.00000000E+00
  1 828 0.00000000E+00
  1 831 0.00000000E+00
  1 836 0.00000000E+00
  1 843 0.00000000E+00
  1 846 0.00000000E+00
  1 847 0.00000000E+00
  1 850 0.00000000E+00
  1 861 0.00000000E+00
  1 872 0.00000000E+00
  1 874 0.00000000E+00
  1 875 0.00000000E+00
  1 884 0.00000000E+00
  1 885 0.00000000E+00
  1 887 0.00000000E+00
  1 891 0.00000000E+00
  1 909 0.00000000E+00
  1 910 0.00000000E+00
  1 912 0.00000000E+00
  1 913 0.00000000E+00
  1 917 0.00000000E+00
  1 919 0.00000000E+00
  1 923 0.00000000E+00
  1 925 0.00000000E+00
  1 928 0.00000000E+00
  1 931 0.00000000E+00
  1 932 0.00000000E+00
  1 933 0.00000000E+00
  1 934 0.00000000E+00
  1 941 0.00000000E+00
  1 947 0.00000000E+00
  1 948 0.00000000E+00
  1 949 0.00000000E+00
  1 954 0.00000000E+00
  1 956 0.00000000E+00
  1 962 0.00000000E+00
  1 965 0.00000000E+00
  1 966 0.00000000E+00
  1 979 0.00000000E+00
  1 980 0.00000000E+00
  1 982 0.00000000E+00
  1 984 0.00000000E+00
  1 987 0.00000000E+00
  1 989 0.00000000E+00
  1 991 0.00000000E+00
  1 994 0.00000000E+00
  1 1000 0.00000000E+00
  1 1001 0.00000000E+00
  1 1006 0.00000000E+00
  1 1007 0.00000000E+00
  1 1008 0.00000000E+00
  1 1009 0.00000000E+00
  1 1010 0.00000000E+00
  1 1011 0.00000000E+00
  1 1018 0.00000000E+00
  1 1019 0.00000000E+00
  1 1022 0.00000000E+00
  1 1024 0.00000000E+00
  1 1025 0.00000000E+00
  1 1026 0.00000000E+00
  1 1027 0.00000000E+00
  1 1028 0.00000000E+00
  1 1029 0.00000000E+00
  1 1032 0.00000000E+00
  1 1034 0.00000000E+00
  1 1038 0.00000000E+00
  1 1041 0.00000000E+00
  1 1046 0.00000000E+00
  1 1052 0.00000000E+00
  1 1057 0.00000000E+00
  1 1060 0.00000000E+00
  1 1065 0.00000000E+00
  1 1069 0.00000000E+00
  1 1077 0.00000000E+00
  1 1078 0.00000000E+00
  1 1079 0.00000000E+00
  1 1083 0.00000000E+00
  1 1089 0.00000000E+00
  1 1096 0.00000000E+00
  1 1099 0.00000000E+00
  1 1101 0.00000000E+00
  1 1104 0.00000000E+00
  1 1105 0.00000000E+00
  1 1109 0.00000000E+00
  1 1116 0.00000000E+00
  1 1119 0.00000000E+00
  1 1120 0.00000000E+00
  1 1123 0.00000000E+00
  1 1124 0.00000000E+00
  1 1126 0.00000000E+00
  1 1128 0.00000000E+00
  1 1130 0.00000000E+00
  1 1131 0.00000000E+00
  1 1146 0.00000000E+00
  1 1157 0.00000000E+00
  1 1159 0.00000000E+00
  1 1168 0.00000000E+00
  1 1170 0.00000000E+00
  1 1173 0.00000000E+00
  1 1177 0.00000000E+00
  1 1179 0.00000000E+00
  1 1189 0.00000000E+00
  1 1190 0.00000000E+00
  1 1191 0.00000000E+00
  1 1192 0.00000000E+00
  1 1193 0.00000000E+00
  1 1195 0.00000000E+00
  1 1196 0.00000000E+00
  1 1197 0.00000000E+00
  1 1200 0.00000000E+00
  1 1201 0.00000000E+00
  1 1204 0.00000000E+00
  1 1206 0.00000000E+00
  1 1207 0.00000000E+00
  1 1210 0.00000000E+00
  1 1213 0.00000000E+00
  1 1214 0.00000000E+00
  1 1216 0.00000000E+00
  1 1218 0.00000000E+00
  1 1220 0.00000000E+00
  1 1223 0.00000000E+00
  1 1225 0.00000000E+00
  1 1232 0.00000000E+00
  1 1233 0.00000000E+00
  1 1239 0.00000000E+00
  1 1241 0.00000000E+00
  1 1244 0.00000000E+00
  1 1248 0.00000000E+00
  1 1251 0.00000000E+00
  1 1253 0.00000000E+00
  1 1254 0.00000000E+00
  1 1255 0.00000000E+00
  1 1256 0.00000000E+00
  1 1258 0.00000000E+00
  1 1260 0.00000000E+00
  1 1262 0.00000000E+00
  1 1264 0.00000000E+00
  1 1274 0.00000000E+00
  1 1282 0.00000000E+00
  1 1285 0.00000000E+00
  1 1287 0.00000000E+00
  1 1290 0.00000000E+00
  1 1295 0.00000000E+00
  1 1296 0.00000000E+00
  1 1298 0.00000000E+00
  1 1301 0.00000000E+00
  1 1306 0.00000000E+00
  1 1309 0.00000000E+00
  1 1311 0.00000000E+00
  1 1313 0.00000000E+00
  1 1314 0.00000000E+00
  1 1319 0.00000000E+00
  1 1323 0.00000000E+00
  1 1336 0.00000000E+00
  1 1346 0.00000000E+00
  1 1353 0.00000000E+00
  1 1359 0.00000000E+00
  1 1361 0.00000000E+00
  1 1364 0.00000000E+00
  1 1366 0.00000000E+00
  1 1368 0.00000000E+00
  1 1371 0.00000000E+00
  1 1373 0.00000000E+00
  1 1375 0.00000000E+00
  1 1376 0.00000000E+00
  1 1378 0.00000000E+00
  1 1379 0.00000000E+00
  1 1382 0.00000000E+00
  1 1385 0.00000000E+00
  1 1386 0.00000000E+00
  1 1389 0.00000000E+00
  1 1393 0.00000000E+00
  1 1395 0.00000000E+00
  1 1396 0.00000000E+00
  1 1398 0.00000000E+00
  1 1399 0.00000000E+00
  1 1402 0.00000000E+00
  1 1410 0.00000000E+00
  1 1412 0.00000000E+00
  1 1418 0.00000000E+00
  1 1419 0.00000000E+00
  1 1420 0.00000000E+00
  1 1427 0.00000000E+00
  1 1428 0.00000000E+00
  1 1433 0.00000000E+00
  1 1435 0.00000000E+00
  1 1442 0.00000000E+00
  1 1444 0.00000000E+00
  1 1447 0.00000000E+00
  1 1622 0.00000000E+00
  1 1623 0.00000000E+00
  1 1628 0.00000000E+00
  1 1679 0.00000000E+00
  1 1681 0.00000000E+00
  1 1683 0.00000000E+00
  1 1684 0.00000000E+00
  1 1694 0.00000000E+00
  1 1698 0.00000000E+00
  1 1702 0.00000000E+00
  1 1708 0.00000000E+00
  1 1709 0.00000000E+00
  1 1710 0.00000000E+00
  1 1714 0.00000000E+00
  1 1715 0.00000000E+00
  1 1718 0.00000000E+00
  1 1720 0.00000000E+00
  1 1728 0.00000000E+00
  1 1740 0.00000000E+00
  1 1745 0.00000000E+00
  1 1760 0.00000000E+00
  1 1763 0.00000000E+00
  1 1769 0.00000000E+00
  1 1771 0.00000000E+00
  1 1773 0.00000000E+00
  1 1774 0.00000000E+00
  1 1787 0.00000000E+00
  1 1788 0.00000000E+00
  1 1791 0.00000000E+00
  1 1793 0.00000000E+00
  1 1796 0.00000000E+00
  1 1798 0.00000000E+00
  1 1803 0.00000000E+00
  1 1804 0.00000000E+00
  1 1807 0.00000000E+00
  1 1810 0.00000000E+00
  1 1818 0.00000000E+00
  1 1827 0.00000000E+00
  1 1840 0.00000000E+00
  1 1842 0.00000000E+00
  1 1848 0.00000000E+00
  1 1853 0.00000000E+00
  1 1857 0.00000000E+00
  1 1859 0.00000000E+00
  1 1860 0.00000000E+00
  1 1871 0.00000000E+00
  1 1874 0.00000000E+00
  1 1877 0.00000000E+00
  1 1886 0.00000000E+00
  1 1887 0.00000000E+00
  1 1892 0.00000000E+00
  1 1902 0.00000000E+00
  1 1911 0.00000000E+00
  1 1913 0.00000000E+00
  1 1920 0.00000000E+00
  1 1927 0.00000000E+00
  1 1938 0.00000000E+00
  1 1943 0.00000000E+00
  1 1945 0.00000000E+00
  1 1947 0.00000000E+00
  1 1952 0.00000000E+00
  1 1954 0.00000000E+00
  1 1964 0.00000000E+00
  1 1975 0.00000000E+00
  1 1976 0.00000000E+00
  1 1988 0.00000000E+00
  1 1999 0.00000000E+00
  1 2002 0.00000000E+00
  1 2003 0.00000000E+00
  1 2005 0.00000000E+00
  1 2008 0.00000000E+00
  1 2014 0.00000000E+00
  1 2018 0.00000000E+00
  1 2019 0.00000000E+00
  1 2021 0.00000000E+00
  1 2024 0.00000000E+00
  1 2026 0.00000000E+00
  1 2029 0.00000000E+00
  1 2031 0.00000000E+00
  1 2032 0.00000000E+00
  1 2034 0.00000000E+00
  1 2035 0.00000000E+00
  1 2038 0.00000000E+00
  1 2041 0.00000000E+00
  1 2050 0.00000000E+00
  1 2057 0.00000000E+00
  1 2065 0.00000000E+00
  1 2067 0.00000000E+00
  1 2073 0.00000000E+00
  1 2074 0.00000000E+00
  1 2077 0.00000000E+00
  1 2082 0.00000000E+00
  1 2083 0.00000000E+00
  1 2084 0.00000000E+00
  1 2106 0.00000000E+00
  1 2108 0.00000000E+00
  1 2110 0.00000000E+00
  1 2117 0.00000000E+00
  1 2120 0.00000000E+00
  1 2121 0.00000000E+00
  1 2124 0.00000000E+00
  1 2126 0.00000000E+00
  1 2128 0.00000000E+00
  1 2130 0.00000000E+00
  1 2136 0.00000000E+00
  1 2137 0.00000000E+00
  1 2144 0.00000000E+00
  1 2145 0.00000000E+00
  1 2147 0.00000000E+00
  1 2150 0.00000000E+00
  1 2152 0.00000000E+00
  1 2153 0.00000000E+00
  1 2155 0.00000000E+00
  1 2156 0.00000000E+00
  1 2164 0.00000000E+00
  1 2165 0.00000000E+00
  1 2166 0.00000000E+00
  1 2168 0.00000000E+00
  1 2178 0.00000000E+00
  1 2179 0.00000000E+00
  1 2181 0.00000000E+00
  1 2187 0.00000000E+00
  1 2189 0.00000000E+00
  1 2193 0.00000000E+00
  1 2194 0.00000000E+00
  1 2197 0.00000000E+00
  1 2201 0.00000000E+00
  1 2203 0.00000000E+00
  1 2205 0.00000000E+00
  1 2210 0.00000000E+00
  1 2213 0.00000000E+00
  1 2218 0.00000000E+00
  1 2219 0.00000000E+00
  1 2222 0.00000000E+00
  1 2223 0.00000000E+00
  1 2224 0.00000000E+00
  1 2227 0.00000000E+00
  1 2231 0.00000000E+00
  1 2232 0.00000000E+00
  1 2237 0.00000000E+00
  1 2238 0.00000000E+00
  1 2239 0.00000000E+00
  1 2242 0.00000000E+00
  1 2243 0.00000000E+00
  1 2249 0.00000000E+00
  1 2251 0.00000000E+00
  1 2252 0.00000000E+00
  1 2265 0.00000000E+00
  1 2266 0.00000000E+00
  1 2270 0.00000000E+00
  1 2272 0.00000000E+00
  1 2273 0.00000000E+00
  1 2274 0.00000000E+00
  1 2278 0.00000000E+00
  1 2288 0.00000000E+00
  1 2289 0.00000000E+00
  1 2290 0.00000000E+00
  1 2293 0.00000000E+00
  1 2295 0.00000000E+00
  1 2298 0.00000000E+00
  1 2303 0.00000000E+00
  1 2304 0.00000000E+00
  1 2305 0.00000000E+00
  1 2307 0.00000000E+00
  1 2308 0.00000000E+00
  1 2309 0.00000000E+00
  1 2310 0.00000000E+00
  1 2314 0.00000000E+00
  1 2319 0.00000000E+00
  1 2321 0.00000000E+00
  1 2322 0.00000000E+00
  1 2327 0.00000000E+00
  1 2328 0.00000000E+00
  1 2331 0.00000000E+00
  1 2336 0.00000000E+00
  1 2341 0.00000000E+00
  1 2343 0.00000000E+00
  1 2351 0.00000000E+00
  1 2353 0.00000000E+00
  1 2355 0.00000000E+00
  1 2357 0.00000000E+00
  1 2359 0.00000000E+00
  1 2360 0.00000000E+00
  1 2365 0.00000000E+00
  1 2366 0.00000000E+00
  1 2369 0.00000000E+00
  1 2370 0.00000000E+00
  1 2374 0.00000000E+00
  1 2378 0.00000000E+00
  1 2380 0.00000000E+00
  1 2409 0.00000000E+00
  1 2411 0.00000000E+00
  1 2417 0.00000000E+00
  1 2420 0.00000000E+00
  1 2426 0.00000000E+00
  1 2431 0.00000000E+00
  1 2436 0.00000000E+00
  1 2437 0.00000000E+00
  1 2442 0.00000000E+00
  1 2445 0.00000000E+00
  1 2446 0.00000000E+00
  1 2466 0.00000000E+00
  1 2479 0.00000000E+00
  1 2493 0.00000000E+00
  1 2495 0.00000000E+00
  1 2514 0.00000000E+00
  1 2525 0.00000000E+00
  1 2534 0.00000000E+00
  1 2542 0.00000000E+00
  1 2543 0.00000000E+00
  1 2549 0.00000000E+00
  1 2550 0.00000000E+00
  1 2552 0.00000000E+00
  1 2556 0.00000000E+00
  1 2557 0.00000000E+00
  1 2560 0.00000000E+00
  1 2562 0.00000000E+00
  1 2563 0.00000000E+00
  1 2565 0.00000000E+00
  1 2569 0.00000000E+00
  1 2570 0.00000000E+00
  1 2572 0.00000000E+00
  1 2573 0.00000000E+00
  1 2575 0.00000000E+00
  1 2576 0.00000000E+00
  1 2581 0.00000000E+00
  1 2582 0.00000000E+00
  1 2583 0.00000000E+00
  1 2589 0.00000000E+00
  1 2592 0.00000000E+00
  1 2593 0.00000000E+00
  1 2594 0.00000000E+00
  1 2601 0.00000000E+00
  1 2603 0.00000000E+00
  1 2605 0.00000000E+00
  1 2607 0.00000000E+00
  1 2610 0.00000000E+00
  1 2611 0.00000000E+00
  1 2616 0.00000000E+00
  1 2617 0.00000000E+00
  1 2620 0.00000000E+00
  1 2621 0.00000000E+00
  1 2623 0.00000000E+00
  1 2625 0.00000000E+00
  1 2626 0.00000000E+00
  1 2630 0.00000000E+00
  1 2632 0.00000000E+00
  1 2637 0.00000000E+00
  1 2638 0.00000000E+00
  1 2640 0.00000000E+00
  1 2643 0.00000000E+00
  1 2644 0.00000000E+00
  1 2647 0.00000000E+00
  1 2648 0.00000000E+00
  1 2649 0.00000000E+00
  1 2650 0.00000000E+00
  1 2651 0.00000000E+00
  1 2653 0.00000000E+00
  1 2656 0.00000000E+00
  1 2657 0.00000000E+00
  1 2660 0.00000000E+00
  1 2663 0.00000000E+00
  1 2664 0.00000000E+00
  1 2666 0.00000000E+00
  1 2671 0.00000000E+00
  1 2672 0.00000000E+00
  1 2674 0.00000000E+00
  1 2680 0.00000000E+00
  1 2689 0.00000000E+00
  1 2693 0.00000000E+00
  1 2696 0.00000000E+00
  1 2699 0.00000000E+00
  1 2701 0.00000000E+00
  1 2702 0.00000000E+00
  1 2710 0.00000000E+00
  1 2714 0.00000000E+00
  1 2718 0.00000000E+00
  1 2721 0.00000000E+00
  1 2722 0.00000000E+00
  1 2733 0.00000000E+00
  1 2736 0.00000000E+00
  1 2744 0.00000000E+00
  1 2749 0.00000000E+00
  1 2750 0.00000000E+00
  1 2752 0.00000000E+00
  1 2764 0.00000000E+00
  1 2767 0.00000000E+00
  1 2773 0.00000000E+00
  1 2780 0.00000000E+00
  1 2787 0.00000000E+00
  1 2788 0.00000000E+00
  1 2790 0.00000000E+00
  1 2796 0.00000000E+00
  1 2797 0.00000000E+00
  1 2803 0.00000000E+00
  1 2809 0.00000000E+00
  1 2814 0.00000000E+00
  1 2819 0.00000000E+00
  1 2820 0.00000000E+00
  1 2822 0.00000000E+00
  1 2823 0.00000000E+00
  1 2824 0.00000000E+00
  1 2826 0.00000000E+00
  1 2829 0.00000000E+00
  1 2830 0.00000000E+00
  1 2832 0.00000000E+00
  1 2833 0.00000000E+00
  1 2834 0.00000000E+00
  1 2835 0.00000000E+00
  1 2841 0.00000000E+00
  1 2843 0.00000000E+00
  1 2845 0.00000000E+00
  1 2850 0.00000000E+00
  1 2853 0.00000000E+00
  1 2856 0.00000000E+00
  1 2858 0.00000000E+00
  1 2862 0.00000000E+00
  1 2864 0.00000000E+00
  1 2872 0.00000000E+00
  1 2875 0.00000000E+00
  1 2877 0.00000000E+00
  1 2888 0.00000000E+00
  1 2890 0.00000000E+00
  1 2899 0.00000000E+00
  1 2906 0.00000000E+00
  1 2907 0.00000000E+00
  1 2913 0.00000000E+00
  1 2914 0.00000000E+00
  1 2916 0.00000000E+00
  1 2919 0.00000000E+00
  1 2924 0.00000000E+00
  1 2925 0.00000000E+00
  1 2933 0.00000000E+00
  1 2939 0.00000000E+00
  1 2950 0.00000000E+00
  1 2951 0.00000000E+00
  1 2955 0.00000000E+00
  1 2958 0.00000000E+00
  1 2960 0.00000000E+00
  1 2967 0.00000000E+00
  1 2969 0.00000000E+00
  1 2971 0.00000000E+00
  1 2973 0.00000000E+00
  1 2975 0.00000000E+00
  1 2978 0.00000000E+00
  1 2980 0.00000000E+00
  1 2985 0.00000000E+00
  1 2989 0.00000000E+00
  1 2994 0.00000000E+00
  1 2996 0.00000000E+00
  1 2998 0.00000000E+00
  1 3000 0.00000000E+00
  1 3002 0.00000000E+00
  1 3004 0.00000000E+00
  1 3006 0.00000000E+00
  1 3008 0.00000000E+00
  1 3010 0.00000000E+00
  1 3012 0.00000000E+00
  1 3014 0.00000000E+00
  1 3017 0.00000000E+00
  1 3043 0.00000000E+00
  1 3061 0.00000000E+00
  1 3081 0.00000000E+00
  1 3083 0.00000000E+00
  1 3088 0.00000000E+00
  1 3089 0.00000000E+00
  1 3091 0.00000000E+00
  1 3094 0.00000000E+00
  1 3096 0.00000000E+00
  1 3098 0.00000000E+00
  1 3104 0.00000000E+00
  1 3108 0.00000000E+00
  1 3112 0.00000000E+00
  1 3118 0.00000000E+00
  1 3121 0.00000000E+00
  1 3123 0.00000000E+00
  1 3127 0.00000000E+00
  1 3129 0.00000000E+00
  1 3134 0.00000000E+00
  1 3136 0.00000000E+00
  1 3138 0.00000000E+00
  1 3142 0.00000000E+00
  1 3157 0.00000000E+00
  1 3161 0.00000000E+00
  1 3164 0.00000000E+00
  1 3173 0.00000000E+00
  1 3177 0.00000000E+00
  1 3182 0.00000000E+00
  1 3184 0.00000000E+00
  1 3186 0.00000000E+00
  1 3296 0.00000000E+00
  1 3309 0.00000000E+00
  1 3325 0.00000000E+00
  1 3333 0.00000000E+00
  1 3341 0.00000000E+00
  1 3344 0.00000000E+00
  1 3352 0.00000000E+00
  1 3355 0.00000000E+00
  1 3358 0.00000000E+00
  1 3360 0.00000000E+00
  1 3362 0.00000000E+00
  1 3365 0.00000000E+00
  1 3367 0.00000000E+00
  1 3369 0.00000000E+00
  1 3371 0.00000000E+00
  1 3375 0.00000000E+00
  1 3377 0.00000000E+00
  1 3379 0.00000000E+00
  1 3381 0.00000000E+00
  1 3383 0.00000000E+00
  1 3385 0.00000000E+00
  1 3387 0.00000000E+00
  1 3390 0.00000000E+00
  1 3392 0.00000000E+00
  1 3394 0.00000000E+00
  1 3398 0.00000000E+00
  1 3400 0.00000000E+00
  1 3404 0.00000000E+00
  1 3406 0.00000000E+00
  1 3409 0.00000000E+00
  1 3413 0.00000000E+00
  1 3415 0.00000000E+00
  1 3423 0.00000000E+00
  1 3426 0.00000000E+00
  1 3429 0.00000000E+00
  1 3431 0.00000000E+00
  1 3433 0.00000000E+00
  1 3438 0.00000000E+00
  1 3440 0.00000000E+00
  1 3442 0.00000000E+00
  1 3452 0.00000000E+00
  1 3454 0.00000000E+00
  1 3456 0.00000000E+00
  1 3458 0.00000000E+00
  1 3460 0.00000000E+00
  1 3463 0.00000000E+00
  1 3466 0.00000000E+00
  1 3468 0.00000000E+00
  1 3497 0.00000000E+00
  1 3499 0.00000000E+00
  1 3511 0.00000000E+00
  1 3515 0.00000000E+00
  1 3520 0.00000000E+00
  1 3522 0.00000000E+00
  1 3525 0.00000000E+00
  1 3528 0.00000000E+00
  1 3531 0.00000000E+00
  1 3533 0.00000000E+00
  1 3540 0.00000000E+00
  1 3542 0.00000000E+00
  1 3544 0.00000000E+00
  1 3546 0.00000000E+00
  1 3548 0.00000000E+00
  1 3550 0.00000000E+00
  1 3553 0.00000000E+00
  1 3555 0.00000000E+00
  1 3557 0.00000000E+00
  1 3559 0.00000000E+00
  1 3561 0.00000000E+00
  1 3563 0.00000000E+00
  1 3567 0.00000000E+00
  1 3570 0.00000000E+00
  1 3574 0.00000000E+00
  1 3579 0.00000000E+00
  1 3581 0.00000000E+00
  1 3583 0.00000000E+00
  1 3736 0.00000000E+00
  1 3741 0.00000000E+00
  1 3743 0.00000000E+00
  1 3745 0.00000000E+00
  1 3755 0.00000000E+00
  1 3757 0.00000000E+00
  1 3759 0.00000000E+00
  1 3762 0.00000000E+00
  1 3765 0.00000000E+00
  1 3767 0.00000000E+00
  1 3769 0.00000000E+00
  1 3772 0.00000000E+00
  1 3776 0.00000000E+00
  1 3783 0.00000000E+00
  1 3785 0.00000000E+00
  1 3789 0.00000000E+00
  1 3791 0.00000000E+00
  1 3794 0.00000000E+00
  1 3799 0.00000000E+00
  1 3800 0.00000000E+00
  1 3805 0.00000000E+00
  1 3807 0.00000000E+00
  1 3809 0.00000000E+00
  1 3811 0.00000000E+00
  1 3819 0.00000000E+00
  1 3820 0.00000000E+00
  1 3824 0.00000000E+00
  1 3827 0.00000000E+00
  1 3837 0.00000000E+00
  1 3839 0.00000000E+00
  1 3841 0.00000000E+00
  1 3844 0.00000000E+00
  1 3848 0.00000000E+00
  1 3857 0.00000000E+00
  1 3860 0.00000000E+00
  1 3862 0.00000000E+00
  1 3865 0.00000000E+00
  1 3867 0.00000000E+00
  1 3869 0.00000000E+00
  1 3871 0.00000000E+00
  1 3873 0.00000000E+00
  1 3875 0.00000000E+00
  1 3878 0.00000000E+00
  1 3880 0.00000000E+00
  1 3882 0.00000000E+00
  1 3886 0.00000000E+00
  1 3889 0.00000000E+00
  1 3893 0.00000000E+00
  1 3911 0.00000000E+00
  1 3913 0.00000000E+00
  1 3925 0.00000000E+00
  1 3934 0.00000000E+00
  1 3936 0.00000000E+00
  1 3947 0.00000000E+00
  1 3950 0.00000000E+00
  1 3953 0.00000000E+00
  1 3955 0.00000000E+00
  1 3958 0.00000000E+00
  1 3960 0.00000000E+00
  1 3962 0.00000000E+00
  1 3965 0.00000000E+00
  1 3968 0.00000000E+00
  1 3975 0.00000000E+00
  1 3980 0.00000000E+00
  1 3983 0.00000000E+00
  1 4100 0.00000000E+00
  1 4105 0.00000000E+00
  1 4107 0.00000000E+00
  1 4109 0.00000000E+00
  1 4111 0.00000000E+00
  1 4116 0.00000000E+00
  1 4120 0.00000000E+00
  1 4123 0.00000000E+00
  1 4126 0.00000000E+00
  1 4129 0.00000000E+00
  1 4132 0.00000000E+00
  1 4140 0.00000000E+00
  1 4142 0.00000000E+00
  1 4145 0.00000000E+00
  1 4147 0.00000000E+00
  1 4150 0.00000000E+00
  1 4153 0.00000000E+00
  1 4156 0.00000000E+00
  1 4158 0.00000000E+00
  1 4161 0.00000000E+00
  1 4163 0.00000000E+00
  1 4166 0.00000000E+00
  1 4168 0.00000000E+00
  1 4173 0.00000000E+00
  1 4176 0.00000000E+00
  1 4188 0.00000000E+00
  1 4190 0.00000000E+00
  1 4193 0.00000000E+00
  1 4195 0.00000000E+00
  1 4197 0.00000000E+00
  1 4199 0.00000000E+00
  1 4203 0.00000000E+00
  1 4208 0.00000000E+00
  1 4213 0.00000000E+00
  1 4215 0.00000000E+00
  1 4217 0.00000000E+00
  1 4239 0.00000000E+00
  1 4258 0.00000000E+00
  1 4261 0.00000000E+00
  1 4263 0.00000000E+00
  1 4274 0.00000000E+00
  1 4361 0.00000000E+00
  1 4368 0.00000000E+00
  1 4376 0.00000000E+00
  1 4378 0.00000000E+00
  1 4380 0.00000000E+00
  1 4383 0.00000000E+00
  1 4395 0.00000000E+00
  1 4398 0.00000000E+00
  1 4400 0.00000000E+00
  1 4410 0.00000000E+00
  1 4456 0.00000000E+00
  1 4495 0.00000000E+00
  1 4503 0.00000000E+00
  1 4515 0.00000000E+00
  1 4519 0.00000000E+00
  1 4531 0.00000000E+00
  1 4563 0.00000000E+00
  1 4592 0.00000000E+00
  1 4767 0.00000000E+00
  1 4968 0.00000000E+00
  1 5765 0.00000000E+00
  1 5768 0.00000000E+00
  1 5789 0.00000000E+00
  1 5982 0.00000000E+00
  1 6056 0.00000000E+00
  1 6058 0.00000000E+00
  1 6172 0.00000000E+00
  1 6179 0.00000000E+00
  1 6336 0.00000000E+00
  1 6337 0.00000000E+00
  1 6417 0.00000000E+00
  1 6523 0.00000000E+00
  1 6631 0.00000000E+00
  1 6633 0.00000000E+00
  1 6636 0.00000000E+00
  1 6641 0.00000000E+00
  1 6645 0.00000000E+00
  1 6648 0.00000000E+00
  1 6650 0.00000000E+00
  1 6656 0.00000000E+00
  1 6658 0.00000000E+00
  1 6684 0.00000000E+00
  1 6700 0.00000000E+00
  1 6712 0.00000000E+00
  1 6714 0.00000000E+00
  1 6725 0.00000000E+00
  1 6745 0.00000000E+00
  1 6764 0.00000000E+00
  1 6765 0.00000000E+00
  1 6767 0.00000000E+00
  1 6774 0.00000000E+00
  1 6775 0.00000000E+00
  1 6786 0.00000000E+00
  1 6789 0.00000000E+00
  1 6805 0.00000000E+00
  1 6823 0.00000000E+00
  1 6824 0.00000000E+00
  1 6843 0.00000000E+00
  1 6844 0.00000000E+00
  1 6851 0.00000000E+00
  1 6852 0.00000000E+00
  1 6857 0.00000000E+00
  1 6858 0.00000000E+00
  1 6859 0.00000000E+00
  1 6860 0.00000000E+00
  1 6861 0.00000000E+00
  1 6862 0.00000000E+00
  1 6872 0.00000000E+00
  1 6873 0.00000000E+00
  1 6874 0.00000000E+00
  1 6875 0.00000000E+00
  1 6880 0.00000000E+00
  1 6881 0.00000000E+00
  1 6884 0.00000000E+00
  1 6885 0.00000000E+00
  1 6886 0.00000000E+00
  1 6887 0.00000000E+00
  1 6888 0.00000000E+00
  1 6889 0.00000000E+00
  1 6890 0.00000000E+00
  1 6891 0.00000000E+00
  1 6896 0.00000000E+00
  1 6897 0.00000000E+00
  1 6901 0.00000000E+00
  1 6903 0.00000000E+00
  1 6904 0.00000000E+00
  1 6905 0.00000000E+00
  1 6907 0.00000000E+00
  1 6909 0.00000000E+00
  1 6912 0.00000000E+00
  1 6916 0.00000000E+00
  1 6918 0.00000000E+00
  1 6919 0.00000000E+00
  1 6921 0.00000000E+00
  1 6923 0.00000000E+00
  1 6924 0.00000000E+00
  1 6925 0.00000000E+00
  1 6926 0.00000000E+00
  1 6927 0.00000000E+00
  1 6928 0.00000000E+00
  1 6929 0.00000000E+00
  1 6930 0.00000000E+00
  1 6931 0.00000000E+00
  1 6932 0.00000000E+00
  1 6933 0.00000000E+00
  1 6934 0.00000000E+00
  1 6935 0.00000000E+00
  1 6936 0.00000000E+00
  1 6937 0.00000000E+00
  1 6938 0.00000000E+00
  1 6939 0.00000000E+00
  1 6940 0.00000000E+00
  1 6953 0.00000000E+00
  1 6954 0.00000000E+00
  1 6959 0.00000000E+00
  1 6960 0.00000000E+00
  1 6978 0.00000000E+00
  1 6979 0.00000000E+00
  1 6980 0.00000000E+00
  1 6981 0.00000000E+00
  1 6982 0.00000000E+00
  1 6983 0.00000000E+00
  1 6985 0.00000000E+00
  1 6987 0.00000000E+00
  1 6988 0.00000000E+00
  1 6989 0.00000000E+00
  1 6990 0.00000000E+00
  1 6991 0.00000000E+00
  1 6992 0.00000000E+00
  1 6993 0.00000000E+00
  1 6994 0.00000000E+00
  1 6995 0.00000000E+00
  1 6996 0.00000000E+00
  1 6997 0.00000000E+00
  1 6998 0.00000000E+00
  1 6999 0.00000000E+00
  1 7000 0.00000000E+00
  1 7001 0.00000000E+00
  1 7002 0.00000000E+00
  1 7003 0.00000000E+00
  1 7004 0.00000000E+00
  1 7005 0.00000000E+00
  1 7006 0.00000000E+00
  1 7007 0.00000000E+00
  1 7008 0.00000000E+00
  1 7009 0.00000000E+00
  1 7010 0.00000000E+00
  1 7011 0.00000000E+00
  1 7012 0.00000000E+00
  1 7013 0.00000000E+00
  1 7015 0.00000000E+00
  1 7030 0.00000000E+00
  1 7032 0.00000000E+00
  1 7036 0.00000000E+00
  1 7039 0.00000000E+00
  1 7041 0.00000000E+00
  1 7047 0.00000000E+00
  1 7049 0.00000000E+00
  1 7050 0.00000000E+00
  1 7051 0.00000000E+00
  1 7052 0.00000000E+00
  1 7053 0.00000000E+00
  1 7054 0.00000000E+00
  1 7056 0.00000000E+00
  1 7058 0.00000000E+00
  1 7062 0.00000000E+00
  1 7065 0.00000000E+00
  1 7066 0.00000000E+00
  1 7070 0.00000000E+00
  1 7072 0.00000000E+00
  1 7075 0.00000000E+00
  1 7079 0.00000000E+00
  1 7081 0.00000000E+00
  1 7082 0.00000000E+00
  1 7084 0.00000000E+00
  1 7087 0.00000000E+00
  1 7090 0.00000000E+00
  1 7096 0.00000000E+00
  1 7099 0.00000000E+00
  1 7101 0.00000000E+00
  1 7105 0.00000000E+00
  1 7110 0.00000000E+00
  1 7114 0.00000000E+00
  1 7116 0.00000000E+00
  1 7120 0.00000000E+00
  1 7121 0.00000000E+00
  1 7123 0.00000000E+00
  1 7126 0.00000000E+00
  1 7128 0.00000000E+00
  1 7132 0.00000000E+00
  1 7135 0.00000000E+00
  1 7138 0.00000000E+00
  1 7140 0.00000000E+00
  1 7141 0.00000000E+00
  1 7142 0.00000000E+00
  1 7143 0.00000000E+00
  1 7145 0.00000000E+00
  1 7147 0.00000000E+00
  1 7152 0.00000000E+00
  1 7154 0.00000000E+00
  1 7155 0.00000000E+00
  1 7156 0.00000000E+00
  1 7159 0.00000000E+00
  1 7164 0.00000000E+00
  1 7168 0.00000000E+00
  1 7171 0.00000000E+00
  1 7174 0.00000000E+00
  1 7177 0.00000000E+00
  1 7179 0.00000000E+00
  1 7181 0.00000000E+00
  1 7184 0.00000000E+00
  1 7185 0.00000000E+00
  1 7187 0.00000000E+00
  1 7189 0.00000000E+00
  1 7193 0.00000000E+00
  1 7195 0.00000000E+00
  1 7199 0.00000000E+00
  1 7202 0.00000000E+00
  1 7205 0.00000000E+00
  1 7207 0.00000000E+00
  1 7208 0.00000000E+00
  1 7213 0.00000000E+00
  1 7215 0.00000000E+00
  1 7221 0.00000000E+00
  1 7224 0.00000000E+00
  1 7225 0.00000000E+00
  1 7299 0.00000000E+00
  1 7301 0.00000000E+00
  1 7302 0.00000000E+00
  1 7303 0.00000000E+00
  1 7306 0.00000000E+00
  1 7316 0.00000000E+00
  1 7317 0.00000000E+00
  1 7330 0.00000000E+00
  1 7331 0.00000000E+00
  1 7332 0.00000000E+00
  1 7333 0.00000000E+00
  1 7335 0.00000000E+00
  1 7346 0.00000000E+00
  1 7350 0.00000000E+00
  1 7352 0.00000000E+00
  1 7356 0.00000000E+00
  1 7358 0.00000000E+00
  1 7361 0.00000000E+00
  1 7364 0.00000000E+00
  1 7365 0.00000000E+00
  1 7366 0.00000000E+00
  1 7367 0.00000000E+00
  1 7368 0.00000000E+00
  1 7369 0.00000000E+00
  1 7371 0.00000000E+00
  1 7373 0.00000000E+00
  1 7377 0.00000000E+00
  1 7380 0.00000000E+00
  1 7383 0.00000000E+00
  1 7386 0.00000000E+00
  1 7389 0.00000000E+00
  1 7391 0.00000000E+00
  1 7394 0.00000000E+00
  1 7398 0.00000000E+00
  1 7400 0.00000000E+00
  1 7404 0.00000000E+00
  1 7406 0.00000000E+00
  1 7409 0.00000000E+00
  1 7413 0.00000000E+00
  1 7415 0.00000000E+00
  1 7418 0.00000000E+00
  1 7421 0.00000000E+00
  1 7424 0.00000000E+00
  1 7425 0.00000000E+00
  1 7426 0.00000000E+00
  1 7427 0.00000000E+00
  1 7429 0.00000000E+00
  1 7432 0.00000000E+00
  1 7434 0.00000000E+00
  1 7438 0.00000000E+00
  1 7440 0.00000000E+00
  1 7441 0.00000000E+00
  1 7444 0.00000000E+00
  1 7445 0.00000000E+00
  1 7452 0.00000000E+00
  1 7455 0.00000000E+00
  1 7458 0.00000000E+00
  1 7462 0.00000000E+00
  1 7464 0.00000000E+00
  1 7468 0.00000000E+00
  1 7471 0.00000000E+00
  1 7474 0.00000000E+00
  1 7477 0.00000000E+00
  1 7480 0.00000000E+00
  1 7482 0.00000000E+00
  1 7486 0.00000000E+00
  1 7488 0.00000000E+00
  1 7492 0.00000000E+00
  1 7494 0.00000000E+00
  1 7495 0.00000000E+00
  1 7496 0.00000000E+00
  1 7497 0.00000000E+00
  1 7498 0.00000000E+00
  1 7499 0.00000000E+00
  1 7542 0.00000000E+00
  1 7543 0.00000000E+00
  1 7544 0.00000000E+00
  1 7545 0.00000000E+00
  1 7546 0.00000000E+00
  1 7547 0.00000000E+00
  1 7552 0.00000000E+00
  1 7555 0.00000000E+00
  1 7559 0.00000000E+00
  1 7562 0.00000000E+00
  1 7564 0.00000000E+00
  1 7567 0.00000000E+00
  1 7570 0.00000000E+00
  1 7573 0.00000000E+00
  1 7577 0.00000000E+00
  1 7579 0.00000000E+00
  1 7583 0.00000000E+00
  1 7585 0.00000000E+00
  1 7589 0.00000000E+00
  1 7591 0.00000000E+00
  1 7594 0.00000000E+00
  1 7598 0.00000000E+00
  1 7601 0.00000000E+00
  1 7604 0.00000000E+00
  1 7607 0.00000000E+00
  1 7610 0.00000000E+00
  1 7636 0.00000000E+00
  1 7638 0.00000000E+00
  1 7639 0.00000000E+00
  1 7640 0.00000000E+00
  1 7641 0.00000000E+00
  1 7642 0.00000000E+00
  1 7645 0.00000000E+00
  1 7647 0.00000000E+00
  1 7648 0.00000000E+00
  1 7649 0.00000000E+00
  1 7650 0.00000000E+00
  1 7653 0.00000000E+00
  1 7654 0.00000000E+00
  1 7656 0.00000000E+00
  1 7658 0.00000000E+00
  1 7660 0.00000000E+00
  1 7665 0.00000000E+00
  1 7666 0.00000000E+00
  1 7667 0.00000000E+00
  1 7668 0.00000000E+00
  1 7669 0.00000000E+00
  1 7670 0.00000000E+00
  1 7671 0.00000000E+00
  1 7673 0.00000000E+00
  1 7675 0.00000000E+00
  1 7676 0.00000000E+00
  1 7677 0.00000000E+00
  1 7678 0.00000000E+00
  1 7679 0.00000000E+00
  1 7680 0.00000000E+00
  1 7681 0.00000000E+00
  1 7682 0.00000000E+00
  1 7683 0.00000000E+00
  1 7684 0.00000000E+00
  1 7685 0.00000000E+00
  1 7686 0.00000000E+00
  1 7687 0.00000000E+00
  1 7688 0.00000000E+00
  1 7690 0.00000000E+00
  1 7691 0.00000000E+00
  1 7692 0.00000000E+00
  1 7693 0.00000000E+00
  1 7694 0.00000000E+00
  1 7695 0.00000000E+00
  1 7696 0.00000000E+00
  1 7697 0.00000000E+00
  1 7698 0.00000000E+00
  1 7699 0.00000000E+00
  1 7700 0.00000000E+00
  1 7701 0.00000000E+00
  1 7702 0.00000000E+00
  1 7703 0.00000000E+00
  1 7704 0.00000000E+00
  1 7742 0.00000000E+00
  1 7743 0.00000000E+00
  1 7746 0.00000000E+00
  1 7747 0.00000000E+00
  1 7758 0.00000000E+00
  1 7759 0.00000000E+00
  1 7760 0.00000000E+00
  1 7761 0.00000000E+00
  1 7762 0.00000000E+00
  1 7763 0.00000000E+00
  1 7764 0.00000000E+00
  1 7765 0.00000000E+00
  1 7766 0.00000000E+00
  1 7767 0.00000000E+00
  1 7768 0.00000000E+00
  1 7769 0.00000000E+00
  1 7772 0.00000000E+00
  1 7773 0.00000000E+00
  1 7774 0.00000000E+00
  1 7775 0.00000000E+00
  1 7776 0.00000000E+00
  1 7777 0.00000000E+00
  1 7778 0.00000000E+00
  1 7779 0.00000000E+00
  1 7780 0.00000000E+00
  1 7781 0.00000000E+00
  1 7782 0.00000000E+00
  1 7784 0.00000000E+00
  1 7785 0.00000000E+00
  1 7786 0.00000000E+00
  1 7787 0.00000000E+00
  1 7788 0.00000000E+00
  1 7789 0.00000000E+00
  1 7790 0.00000000E+00
  1 7793 0.00000000E+00
  1 7794 0.00000000E+00
  1 7795 0.00000000E+00
  1 7796 0.00000000E+00
  1 7797 0.00000000E+00
  1 7799 0.00000000E+00
  1 7800 0.00000000E+00
  1 7802 0.00000000E+00
  1 7803 0.00000000E+00
  1 7804 0.00000000E+00
  1 7805 0.00000000E+00
  1 7806 0.00000000E+00
  1 7807 0.00000000E+00
  1 7808 0.00000000E+00
  1 7809 0.00000000E+00
  1 7810 0.00000000E+00
  1 7811 0.00000000E+00
  1 7812 0.00000000E+00
  1 7813 0.00000000E+00
  1 7814 0.00000000E+00
  1 7815 0.00000000E+00
  1 7816 0.00000000E+00
  1 7833 0.00000000E+00
  1 7834 0.00000000E+00
  1 7841 0.00000000E+00
  1 7842 0.00000000E+00
  1 7843 0.00000000E+00
  1 7845 0.00000000E+00
  1 7846 0.00000000E+00
  1 7847 0.00000000E+00
  1 7854 0.00000000E+00
  1 7856 0.00000000E+00
  1 7857 0.00000000E+00
  1 7858 0.00000000E+00
  1 7859 0.00000000E+00
  1 7860 0.00000000E+00
  1 7861 0.00000000E+00
  1 7862 0.00000000E+00
  1 7863 0.00000000E+00
  1 7864 0.00000000E+00
  1 7869 0.00000000E+00
  1 7870 0.00000000E+00
  1 7871 0.00000000E+00
  1 7873 0.00000000E+00
  1 7875 0.00000000E+00
  1 7876 0.00000000E+00
  1 7877 0.00000000E+00
  1 7878 0.00000000E+00
  1 7880 0.00000000E+00