# File generated by Flopy version 3.9.1 on 02/09/2026 at 23:33:22.
BEGIN options
  SAVE_FLOWS
  NEWTON  UNDER_RELAXATION
END options

BEGIN packages
  DISV6  triangle_caseC.disv  disv
  IC6  triangle_caseC.ic  ic
  CHD6  triangle_caseC.chd  chd
  NPF6  triangle_caseC.npf  npf
  WEL6  triangle_caseC.wel  well_casec
  RCH6  triangle_caseC.rch  rch
  EVT6  triangle_caseC.evt  evt
  OC6  triangle_caseC.oc  oc
END packages

