# File generated by Flopy version 3.9.1 on 02/09/2026 at 23:33:23.
BEGIN options
  FIXED_CELL
  PRINT_FLOWS
  SAVE_FLOWS
END options

BEGIN dimensions
  MAXBOUND  12818
END dimensions

BEGIN period  1
  1 1 5.66344377E-09
  1 2 7.80063636E-09
  1 3 9.18381747E-09
  1 4 9.18843479E-09
  1 5 9.18937185E-09
  1 6 9.18905867E-09
  1 7 9.14060458E-09
  1 8 9.18774950E-09
  1 9 9.27881466E-09
  1 10 9.18654471E-09
  1 11 9.18938828E-09
  1 12 9.18720842E-09
  1 13 9.35845715E-09
  1 14 9.18919033E-09
  1 15 9.36553878E-09
  1 16 9.36431946E-09
  1 17 9.51581676E-09
  1 18 9.36369718E-09
  1 19 9.18868713E-09
  1 20 7.78355729E-09
  1 21 9.18718468E-09
  1 22 9.18534739E-09
  1 23 9.18420099E-09
  1 24 9.18710511E-09
  1 25 9.13510931E-09
  1 26 9.18591304E-09
  1 27 9.17310617E-09
  1 28 9.18451967E-09
  1 29 9.18855662E-09
  1 30 9.18870550E-09
  1 31 9.20035445E-09
  1 32 9.18839486E-09
  1 33 9.18796727E-09
  1 34 9.18800321E-09
  1 35 9.28650871E-09
  1 36 9.19313187E-09
  1 37 9.18771102E-09
  1 38 9.19007862E-09
  1 39 9.18865095E-09
  1 40 9.18438472E-09
  1 41 9.13795808E-09
  1 42 9.18632503E-09
  1 43 9.13768784E-09
  1 44 9.13079050E-09
  1 45 9.12812624E-09
  1 46 9.13011665E-09
  1 47 9.12763333E-09
  1 48 9.12905282E-09
  1 49 9.12081572E-09
  1 50 9.12618121E-09
  1 51 9.11070503E-09
  1 52 9.12697992E-09
  1 53 9.11809032E-09
  1 54 9.08380021E-09
  1 55 9.12715090E-09
  1 56 9.12682123E-09
  1 57 9.11833835E-09
  1 58 9.12490093E-09
  1 59 9.12674802E-09
  1 60 9.11756040E-09
  1 61 8.97408732E-09
  1 62 6.76872174E-09
  1 63 9.36438189E-09
  1 64 9.36741414E-09
  1 65 9.36797995E-09
  1 66 9.42330319E-09
  1 67 9.36720930E-09
  1 68 9.36544901E-09
  1 69 9.36625901E-09
  1 70 9.36736500E-09
  1 71 6.11015584E-09
  1 72 9.36819193E-09
  1 73 9.11865802E-09
  1 74 9.11875665E-09
  1 75 9.11983444E-09
  1 76 9.11706173E-09
  1 77 9.11199436E-09
  1 78 8.93902368E-09
  1 79 9.07637821E-09
  1 80 9.07883068E-09
  1 81 5.47123199E-09
  1 82 9.11168899E-09
  1 83 9.39459028E-09
  1 84 8.97260396E-09
  1 85 9.36643664E-09
  1 86 9.07512516E-09
  1 87 9.36584588E-09
  1 88 6.63591300E-09
  1 89 8.92981591E-09
  1 90 8.76882996E-09
  1 91 8.93333723E-09
  1 92 8.93309222E-09
  1 93 8.93252868E-09
  1 94 8.93310761E-09
  1 95 8.65377681E-09
  1 96 8.93324905E-09
  1 97 8.93948481E-09
  1 98 8.93473299E-09
  1 99 8.93394581E-09
  1 100 9.00282800E-09
  1 101 8.93316603E-09
  1 102 8.93205785E-09
  1 103 8.93172415E-09
  1 104 8.93344640E-09
  1 105 8.93170532E-09
  1 106 8.93339514E-09
  1 107 8.93194586E-09
  1 108 8.79536068E-09
  1 109 8.93409356E-09
  1 110 8.93193658E-09
  1 111 8.93235479E-09
  1 112 8.93321481E-09
  1 113 8.93501321E-09
  1 114 8.93310233E-09
  1 115 8.93316853E-09
  1 116 8.93439713E-09
  1 117 8.93248946E-09
  1 118 8.93526793E-09
  1 119 8.93590170E-09
  1 120 8.94792293E-09
  1 121 9.09120664E-09
  1 122 8.93860985E-09
  1 123 8.93917920E-09
  1 124 8.93870026E-09
  1 125 8.93919366E-09
  1 126 8.93527086E-09
  1 127 8.93822742E-09
  1 128 8.93643787E-09
  1 129 8.93369516E-09
  1 130 8.93382853E-09
  1 131 8.93139475E-09
  1 132 8.95614663E-09
  1 133 9.13821022E-09
  1 134 9.13802510E-09
  1 135 9.13867339E-09
  1 136 9.13642251E-09
  1 137 9.13919042E-09
  1 138 9.13860214E-09
  1 139 9.01162654E-09
  1 140 9.13796100E-09
  1 141 9.18397039E-09
  1 142 9.18249352E-09
  1 143 9.18327528E-09
  1 144 9.18527598E-09
  1 145 9.13912866E-09
  1 146 9.14635509E-09
  1 147 9.13702843E-09
  1 148 9.15605840E-09
  1 149 9.13990504E-09
  1 150 9.18429883E-09
  1 151 9.13718627E-09
  1 152 6.88284175E-09
  1 153 9.13436628E-09
  1 154 9.11490123E-09
  1 155 9.13372104E-09
  1 156 9.13488970E-09
  1 157 9.13395226E-09
  1 158 9.13095204E-09
  1 159 9.13247442E-09
  1 160 9.13342762E-09
  1 161 8.95037722E-09
  1 162 9.25198615E-09
  1 163 9.13697167E-09
  1 164 9.13692617E-09
  1 165 9.13666068E-09
  1 166 9.13676971E-09
  1 167 9.13655087E-09
  1 168 9.13580162E-09
  1 169 9.13425409E-09
  1 170 9.13720734E-09
  1 171 9.13537410E-09
  1 172 9.13581549E-09
  1 173 9.37545076E-09
  1 174 9.07032233E-09
  1 175 6.92087335E-09
  1 176 9.18207048E-09
  1 177 9.36484466E-09
  1 178 9.05814508E-09
  1 179 8.68336885E-09
  1 180 9.13110403E-09
  1 181 9.04190776E-09
  1 182 9.03704336E-09
  1 183 8.99906250E-09
  1 184 8.99917157E-09
  1 185 8.99861450E-09
  1 186 8.99942156E-09
  1 187 9.01209491E-09
  1 188 7.79272957E-09
  1 189 8.99948352E-09
  1 190 9.00635899E-09
  1 191 8.99912246E-09
  1 192 9.00324604E-09
  1 193 8.99959074E-09
  1 194 8.99929927E-09
  1 195 8.99880844E-09
  1 196 8.99886083E-09
  1 197 8.99960797E-09
  1 198 8.99877584E-09
  1 199 8.99866675E-09
  1 200 6.03171983E-09
  1 201 8.99919927E-09
  1 202 8.99935910E-09
  1 203 8.99955494E-09
  1 204 9.03014188E-09
  1 205 8.99959481E-09
  1 206 8.99967153E-09
  1 207 8.99981809E-09
  1 208 8.96608360E-09
  1 209 8.99901714E-09
  1 210 8.99901694E-09
  1 211 8.99863787E-09
  1 212 8.96699815E-09
  1 213 8.99920744E-09
  1 214 8.99903438E-09
  1 215 8.99876970E-09
  1 216 8.99912121E-09
  1 217 8.99908395E-09
  1 218 8.99903537E-09
  1 219 8.99922266E-09
  1 220 8.99980175E-09
  1 221 9.02714091E-09
  1 222 8.99871428E-09
  1 223 9.00302392E-09
  1 224 8.99498392E-09
  1 225 8.96861037E-09
  1 226 8.99922156E-09
  1 227 8.96719465E-09
  1 228 8.96755759E-09
  1 229 8.96783114E-09
  1 230 8.96753283E-09
  1 231 8.98213246E-09
  1 232 8.99231637E-09
  1 233 8.97438375E-09
  1 234 8.81593177E-09
  1 235 8.96668422E-09
  1 236 8.96754905E-09
  1 237 8.96774817E-09
  1 238 8.96687654E-09
  1 239 8.96700445E-09
  1 240 8.96658869E-09
  1 241 8.96679147E-09
  1 242 9.00540244E-09
  1 243 8.96736038E-09
  1 244 8.96684599E-09
  1 245 8.96677816E-09
  1 246 8.96633730E-09
  1 247 8.96606919E-09
  1 248 8.96667817E-09
  1 249 8.96658177E-09
  1 250 8.96656452E-09
  1 251 8.96591522E-09
  1 252 8.96626529E-09
  1 253 8.96583269E-09
  1 254 8.96599263E-09
  1 255 8.96587340E-09
  1 256 8.96568022E-09
  1 257 8.96578409E-09
  1 258 8.96579672E-09
  1 259 8.96593951E-09
  1 260 8.96548139E-09
  1 261 8.96578054E-09
  1 262 8.96564158E-09
  1 263 8.96574665E-09
  1 264 8.96651883E-09
  1 265 8.96710237E-09
  1 266 8.08392443E-09
  1 267 8.99897004E-09
  1 268 7.50522504E-09
  1 269 9.07444074E-09
  1 270 9.07574273E-09
  1 271 9.07469804E-09
  1 272 9.06954086E-09
  1 273 9.07270779E-09
  1 274 9.07202540E-09
  1 275 9.07402603E-09
  1 276 9.07049427E-09
  1 277 9.03556526E-09
  1 278 9.05351234E-09
  1 279 9.03654086E-09
  1 280 9.03602396E-09
  1 281 9.06889539E-09
  1 282 9.06876674E-09
  1 283 9.06775835E-09
  1 284 9.06803560E-09
  1 285 9.06829605E-09
  1 286 9.06793168E-09
  1 287 9.07516386E-09
  1 288 7.78940691E-09
  1 289 8.97173452E-09
  1 290 9.06968419E-09
  1 291 8.96373082E-09
  1 292 9.07052371E-09
  1 293 8.97059358E-09
  1 294 8.97096186E-09
  1 295 8.96992769E-09
  1 296 8.96917817E-09
  1 297 5.27665540E-09
  1 298 8.97062902E-09
  1 299 9.06850996E-09
  1 300 9.06850932E-09
  1 301 9.06722159E-09
  1 302 9.06788630E-09
  1 303 9.06867834E-09
  1 304 9.06894890E-09
  1 305 9.06790343E-09
  1 306 9.06865960E-09
  1 307 9.06876573E-09
  1 308 9.03230766E-09
  1 309 8.96991480E-09
  1 310 9.06898119E-09
  1 311 9.07418821E-09
  1 312 9.06887254E-09
  1 313 9.03272647E-09
  1 314 9.03300262E-09
  1 315 9.03308054E-09
  1 316 9.03314472E-09
  1 317 8.96595084E-09
  1 318 8.96601321E-09
  1 319 9.03510740E-09
  1 320 9.03281834E-09
  1 321 8.96582662E-09
  1 322 9.03242998E-09
  1 323 8.96584225E-09
  1 324 8.96589533E-09
  1 325 8.96566004E-09
  1 326 8.96643287E-09
  1 327 8.96584183E-09
  1 328 8.96583131E-09
  1 329 9.03257130E-09
  1 330 8.96578732E-09
  1 331 8.96279336E-09
  1 332 9.03365168E-09
  1 333 9.03390840E-09
  1 334 9.03355535E-09
  1 335 9.03495806E-09
  1 336 9.03484185E-09
  1 337 9.03409667E-09
  1 338 9.03524101E-09
  1 339 9.03564276E-09
  1 340 9.03540558E-09
  1 341 9.03568869E-09
  1 342 9.03368433E-09
  1 343 7.95688711E-09
  1 344 9.03414893E-09
  1 345 8.70964013E-09
  1 346 9.03320644E-09
  1 347 8.11029660E-09
  1 348 9.03250953E-09
  1 349 9.21792867E-09
  1 350 7.79204664E-09
  1 351 9.06734198E-09
  1 352 7.82964910E-09
  1 353 8.78190662E-09
  1 354 9.03323700E-09
  1 355 9.03450637E-09
  1 356 8.96558243E-09
  1 357 8.96754341E-09
  1 358 9.04167848E-09
  1 359 9.07487446E-09
  1 360 8.86589426E-09
  1 361 8.93707546E-09
  1 362 9.04345789E-09
  1 363 8.75195072E-09
  1 364 8.68884984E-09
  1 365 8.68688806E-09
  1 366 8.72100355E-09
  1 367 8.68678462E-09
  1 368 8.68624065E-09
  1 369 8.72843331E-09
  1 370 8.68589705E-09
  1 371 8.68599937E-09
  1 372 8.68641416E-09
  1 373 8.68487489E-09
  1 374 8.68510756E-09
  1 375 8.68585366E-09
  1 376 8.68538011E-09
  1 377 8.68267414E-09
  1 378 8.68536617E-09
  1 379 8.68581986E-09
  1 380 8.67635647E-09
  1 381 8.69144582E-09
  1 382 8.68443861E-09
  1 383 8.68528660E-09
  1 384 8.69808076E-09
  1 385 8.72833372E-09
  1 386 9.06948758E-09
  1 387 8.72461210E-09
  1 388 8.65113998E-09
  1 389 8.75039242E-09
  1 390 8.68539978E-09
  1 391 8.68515743E-09
  1 392 8.68546086E-09
  1 393 8.66682934E-09
  1 394 8.68463371E-09
  1 395 8.68512697E-09
  1 396 8.68524923E-09
  1 397 8.68439607E-09
  1 398 8.68328650E-09
  1 399 8.68618852E-09
  1 400 8.68516770E-09
  1 401 8.70714173E-09
  1 402 8.72338133E-09
  1 403 5.49959847E-09
  1 404 8.67408823E-09
  1 405 8.68570397E-09
  1 406 8.68583553E-09
  1 407 8.68654123E-09
  1 408 8.68580757E-09
  1 409 8.71712646E-09
  1 410 8.68565570E-09
  1 411 8.68599222E-09
  1 412 8.71671958E-09
  1 413 8.62945456E-09
  1 414 5.23252937E-09
  1 415 8.69919441E-09
  1 416 8.62031405E-09
  1 417 8.71740199E-09
  1 418 8.71744427E-09
  1 419 8.68489217E-09
  1 420 8.71645246E-09
  1 421 8.71645750E-09
  1 422 8.71652637E-09
  1 423 8.71787554E-09
  1 424 8.68527260E-09
  1 425 8.71710917E-09
  1 426 8.71745426E-09
  1 427 8.71662286E-09
  1 428 8.71586646E-09
  1 429 8.71713562E-09
  1 430 8.71704636E-09
  1 431 8.70714121E-09
  1 432 8.71658361E-09
  1 433 8.71704280E-09
  1 434 8.71625092E-09
  1 435 8.71901873E-09
  1 436 8.71710375E-09
  1 437 8.71752506E-09
  1 438 8.71583202E-09
  1 439 8.71788816E-09
  1 440 8.71835178E-09
  1 441 8.71797275E-09
  1 442 8.71794714E-09
  1 443 8.71700693E-09
  1 444 8.70459824E-09
  1 445 8.71808714E-09
  1 446 8.71667122E-09
  1 447 8.71832255E-09
  1 448 8.71846071E-09
  1 449 8.72415949E-09
  1 450 7.46163586E-09
  1 451 8.81960976E-09
  1 452 8.86987167E-09
  1 453 8.82035921E-09
  1 454 8.82157813E-09
  1 455 8.82181799E-09
  1 456 8.82226094E-09
  1 457 8.82235471E-09
  1 458 8.82135334E-09
  1 459 8.82106205E-09
  1 460 8.82450394E-09
  1 461 8.81734071E-09
  1 462 8.82108575E-09
  1 463 8.82158498E-09
  1 464 8.82037100E-09
  1 465 8.82070738E-09
  1 466 8.82180965E-09
  1 467 8.82025143E-09
  1 468 8.82127375E-09
  1 469 8.82242854E-09
  1 470 8.82651055E-09
  1 471 8.82490855E-09
  1 472 8.82362899E-09
  1 473 8.82536070E-09
  1 474 8.82436688E-09
  1 475 8.86902286E-09
  1 476 8.85955167E-09
  1 477 9.08082615E-09
  1 478 8.85280557E-09
  1 479 8.83252793E-09
  1 480 8.82602592E-09
  1 481 8.82406546E-09
  1 482 8.82505043E-09
  1 483 8.82261727E-09
  1 484 8.82458037E-09
  1 485 8.82512408E-09
  1 486 8.82335400E-09
  1 487 8.82287511E-09
  1 488 8.82485494E-09
  1 489 8.82321396E-09
  1 490 8.82376367E-09
  1 491 7.80075732E-09
  1 492 8.83765361E-09
  1 493 5.02371717E-09
  1 494 8.82047857E-09
  1 495 8.79310258E-09
  1 496 8.79141045E-09
  1 497 8.79200429E-09
  1 498 8.79234115E-09
  1 499 8.79396888E-09
  1 500 8.79351549E-09
  1 501 8.79290463E-09
  1 502 8.79302802E-09
  1 503 8.71875542E-09
  1 504 8.77037462E-09
  1 505 8.71761592E-09
  1 506 8.71851337E-09
  1 507 8.79044653E-09
  1 508 8.72360768E-09
  1 509 8.79134343E-09
  1 510 8.79102440E-09
  1 511 8.79157517E-09
  1 512 8.79070979E-09
  1 513 8.79052864E-09
  1 514 9.13128104E-09
  1 515 8.79518265E-09
  1 516 8.79492928E-09
  1 517 8.79367672E-09
  1 518 8.79673483E-09
  1 519 8.79102827E-09
  1 520 8.79571439E-09
  1 521 8.79056027E-09
  1 522 8.79532406E-09
  1 523 8.79412549E-09
  1 524 8.77286691E-09
  1 525 8.79320843E-09
  1 526 8.79342041E-09
  1 527 8.79578201E-09
  1 528 8.79374332E-09
  1 529 8.79271561E-09
  1 530 8.79611455E-09
  1 531 8.78424717E-09
  1 532 8.79494634E-09
  1 533 8.79384781E-09
  1 534 8.79424664E-09
  1 535 8.79594640E-09
  1 536 8.80503759E-09
  1 537 8.62439700E-09
  1 538 8.71872440E-09
  1 539 8.83401546E-09
  1 540 8.82010721E-09
  1 541 7.27199405E-09
  1 542 8.77921308E-09
  1 543 8.66999508E-09
  1 544 8.66304470E-09
  1 545 8.66118314E-09
  1 546 8.66180273E-09
  1 547 8.66076160E-09
  1 548 8.66156632E-09
  1 549 8.66473465E-09
  1 550 8.65936921E-09
  1 551 8.68037774E-09
  1 552 8.66678803E-09
  1 553 8.66445288E-09
  1 554 8.94885625E-09
  1 555 8.65765469E-09
  1 556 8.65991653E-09
  1 557 8.65678579E-09
  1 558 8.65803200E-09
  1 559 8.65881287E-09
  1 560 8.65729837E-09
  1 561 8.65576815E-09
  1 562 9.03518790E-09
  1 563 8.65904389E-09
  1 564 8.65694157E-09
  1 565 8.65462893E-09
  1 566 8.65794105E-09
  1 567 8.65645359E-09
  1 568 8.65766968E-09
  1 569 8.65856580E-09
  1 570 8.65569247E-09
  1 571 8.65514697E-09
  1 572 8.62552643E-09
  1 573 8.65502353E-09
  1 574 8.65498380E-09
  1 575 8.65716443E-09
  1 576 8.65475549E-09
  1 577 8.65437919E-09
  1 578 8.65616886E-09
  1 579 8.65495835E-09
  1 580 8.65643675E-09
  1 581 8.65237442E-09
  1 582 8.66087543E-09
  1 583 8.66357590E-09
  1 584 8.65881420E-09
  1 585 8.74169174E-09
  1 586 8.74203360E-09
  1 587 8.72823947E-09
  1 588 8.70543814E-09
  1 589 8.74058120E-09
  1 590 8.70695738E-09
  1 591 8.93217979E-09
  1 592 8.74124157E-09
  1 593 8.96959782E-09
  1 594 8.93742804E-09
  1 595 8.90264245E-09
  1 596 8.93512224E-09
  1 597 8.75854519E-09
  1 598 9.48651606E-09
  1 599 9.54981340E-09
  1 600 9.35013129E-09
  1 601 8.93399891E-09
  1 602 9.35174022E-09
  1 603 8.73979006E-09
  1 604 8.99083412E-09
  1 605 8.65130469E-09
  1 606 8.65048635E-09
  1 607 8.64963061E-09
  1 608 8.65118946E-09
  1 609 8.65006586E-09
  1 610 8.64967457E-09
  1 611 8.63009269E-09
  1 612 8.65173675E-09
  1 613 8.64899493E-09
  1 614 8.64923861E-09
  1 615 8.76334635E-09
  1 616 8.65327737E-09
  1 617 8.65197968E-09
  1 618 8.65221960E-09
  1 619 8.65408469E-09
  1 620 8.65222016E-09
  1 621 9.36818564E-09
  1 622 9.10424525E-09
  1 623 8.65355275E-09
  1 624 8.65216874E-09
  1 625 8.64812595E-09
  1 626 8.69443650E-09
  1 627 8.68716617E-09
  1 628 9.43908509E-09
  1 629 8.64886693E-09
  1 630 6.67658253E-09
  1 631 8.61875570E-09
  1 632 8.64882039E-09
  1 633 8.61887394E-09
  1 634 8.61915582E-09
  1 635 8.61762460E-09
  1 636 8.61811901E-09
  1 637 8.61876328E-09
  1 638 8.61819513E-09
  1 639 8.62011379E-09
  1 640 8.62087522E-09
  1 641 8.61880152E-09
  1 642 8.61889074E-09
  1 643 8.61992587E-09
  1 644 8.62074384E-09
  1 645 8.61823786E-09
  1 646 8.61924398E-09
  1 647 8.61975773E-09
  1 648 8.65466115E-09
  1 649 8.61830555E-09
  1 650 8.62403941E-09
  1 651 8.77983721E-09
  1 652 8.77985331E-09
  1 653 8.77952552E-09
  1 654 8.71778479E-09
  1 655 8.78018298E-09
  1 656 8.78008080E-09
  1 657 8.71546551E-09
  1 658 8.64644261E-09
  1 659 8.78542092E-09
  1 660 8.78004848E-09
  1 661 8.78048692E-09
  1 662 8.78061277E-09
  1 663 8.78081851E-09
  1 664 8.78055645E-09
  1 665 8.78295585E-09
  1 666 8.78067614E-09
  1 667 8.78179560E-09
  1 668 8.78114120E-09
  1 669 8.78267880E-09
  1 670 8.78111322E-09
  1 671 8.77997150E-09
  1 672 8.68425227E-09
  1 673 8.77922175E-09
  1 674 8.78214728E-09
  1 675 8.64711108E-09
  1 676 8.64813543E-09
  1 677 8.64639639E-09
  1 678 8.64820875E-09
  1 679 8.65364481E-09
  1 680 8.64786738E-09
  1 681 8.64721885E-09
  1 682 8.64627125E-09
  1 683 8.64891076E-09
  1 684 8.64841564E-09
  1 685 8.64653798E-09
  1 686 9.42723035E-09
  1 687 9.26056499E-09
  1 688 9.40709063E-09
  1 689 9.30787296E-09
  1 690 9.27871978E-09
  1 691 8.64701260E-09
  1 692 8.64832545E-09
  1 693 8.61998250E-09
  1 694 8.63065681E-09
  1 695 8.78326989E-09
  1 696 8.78366415E-09
  1 697 8.78487802E-09
  1 698 8.78445555E-09
  1 699 8.78537114E-09
  1 700 8.78423523E-09
  1 701 8.78697282E-09
  1 702 8.78530795E-09
  1 703 8.78065685E-09
  1 704 8.39175400E-09
  1 705 8.79769097E-09
  1 706 9.42219127E-09
  1 707 9.35177867E-09
  1 708 9.20201913E-09
  1 709 9.17503910E-09
  1 710 9.12760743E-09
  1 711 9.19167686E-09
  1 712 9.23476655E-09
  1 713 9.36551550E-09
  1 714 8.49804418E-09
  1 715 9.18118267E-09
  1 716 8.64231865E-09
  1 717 8.78289513E-09
  1 718 7.37599971E-09
  1 719 8.78499160E-09
  1 720 8.65739465E-09
  1 721 6.57330758E-09
  1 722 8.91014651E-09
  1 723 7.65786515E-09
  1 724 7.27697889E-09
  1 725 8.95613510E-09
  1 726 9.34289667E-09
  1 727 7.93410880E-09
  1 728 4.08516144E-09
  1 729 7.90611024E-09
  1 730 6.69700077E-09
  1 731 7.90278965E-09
  1 732 7.89861095E-09
  1 733 7.11883478E-09
  1 734 6.70257882E-09
  1 735 8.72443892E-09
  1 736 9.03057317E-09
  1 737 7.89178506E-09
  1 738 7.89315830E-09
  1 739 8.69847949E-09
  1 740 7.89319206E-09
  1 741 7.89341078E-09
  1 742 8.90453400E-09
  1 743 7.88453193E-09
  1 744 8.99770725E-09
  1 745 8.28762352E-09
  1 746 6.57009073E-09
  1 747 9.05103279E-09
  1 748 9.12160686E-09
  1 749 8.78125893E-09
  1 750 5.93036300E-09
  1 751 6.39915723E-09
  1 752 6.72104340E-09
  1 753 9.30322367E-09
  1 754 7.80126481E-09
  1 755 7.88073668E-09
  1 756 8.34268849E-09
  1 757 9.02693331E-09
  1 758 8.26244980E-09
  1 759 8.44033667E-09
  1 760 6.82610671E-09
  1 761 8.51880960E-09
  1 762 8.50390694E-09
  1 763 7.80455501E-09
  1 764 7.70608829E-09
  1 765 7.06784854E-09
  1 766 9.05081287E-09
  1 767 8.65694486E-09
  1 768 6.62618402E-09
  1 769 6.59936356E-09
  1 770 7.58367810E-09
  1 771 7.36126518E-09
  1 772 7.44623681E-09
  1 773 7.44231924E-09
  1 774 7.38154600E-09
  1 775 7.43583325E-09
  1 776 7.44796104E-09
  1 777 7.36353939E-09
  1 778 7.38865395E-09
  1 779 4.13062025E-09
  1 780 4.12726968E-09
  1 781 7.30287014E-09
  1 782 7.34640288E-09
  1 783 7.30560467E-09
  1 784 7.31623807E-09
  1 785 7.31887023E-09
  1 786 5.08727821E-09
  1 787 7.37280911E-09
  1 788 6.46601419E-09
  1 789 7.21875067E-09
  1 790 7.20448582E-09
  1 791 8.99157711E-09
  1 792 7.25771580E-09
  1 793 7.17194963E-09
  1 794 6.99643053E-09
  1 795 7.09608681E-09
  1 796 7.19259688E-09
  1 797 7.20606077E-09
  1 798 5.44542307E-09
  1 799 7.01357182E-09
  1 800 6.98707049E-09
  1 801 6.83816620E-09
  1 802 8.82509194E-09
  1 803 6.91056339E-09
  1 804 6.96186521E-09
  1 805 6.36388364E-09
  1 806 6.80338960E-09
  1 807 6.90500542E-09
  1 808 9.05019559E-09
  1 809 7.21710536E-09
  1 810 8.71726981E-09
  1 811 5.92530930E-09
  1 812 5.09930796E-09
  1 813 1.09051103E-08
  1 814 6.57620247E-09
  1 815 9.89456059E-09
  1 816 5.56450761E-09
  1 817 7.71331835E-09
  1 818 9.06387614E-09
  1 819 1.09129636E-08
  1 820 1.11102117E-08
  1 821 5.25895745E-09
  1 822 7.56629382E-09
  1 823 6.42497976E-09
  1 824 9.07671256E-09
  1 825 1.04954167E-08
  1 826 1.02055915E-08
  1 827 6.05885498E-09
  1 828 7.71585307E-09
  1 829 1.09401589E-08
  1 830 1.07182802E-08
  1 831 7.20379429E-09
  1 832 1.09030531E-08
  1 833 1.13588642E-08
  1 834 1.00666150E-08
  1 835 1.09145253E-08
  1 836 7.54555967E-09
  1 837 5.27164024E-09
  1 838 1.09415412E-08
  1 839 8.68535934E-09
  1 840 8.84039299E-09
  1 841 8.57478694E-09
  1 842 9.03332760E-09
  1 843 7.79297004E-09
  1 844 7.18613929E-09
  1 845 1.10761669E-08
  1 846 7.87728807E-09
  1 847 4.16945010E-09
  1 848 1.14258066E-08
  1 849 1.14293718E-08
  1 850 6.03198045E-09
  1 851 7.73274444E-09
  1 852 1.14952450E-08
  1 853 7.49931339E-09
  1 854 1.15584798E-08
  1 855 8.95795759E-09
  1 856 1.08981894E-08
  1 857 5.65560759E-09
  1 858 1.14271124E-08
  1 859 1.06140166E-08
  1 860 8.52824461E-09
  1 861 6.40848770E-09
  1 862 1.11493733E-08
  1 863 6.31164175E-09
  1 864 6.03433019E-09
  1 865 1.15202610E-08
  1 866 6.41025360E-09
  1 867 6.47138185E-09
  1 868 6.50460750E-09
  1 869 6.34210757E-09
  1 870 9.00299949E-09
  1 871 6.11979393E-09
  1 872 5.98120782E-09
  1 873 5.85752666E-09
  1 874 5.89790466E-09
  1 875 6.01537883E-09
  1 876 6.15503407E-09
  1 877 1.18461549E-08
  1 878 8.89951250E-09
  1 879 6.37619677E-09
  1 880 7.43723926E-09
  1 881 1.01394108E-08
  1 882 1.17601599E-08
  1 883 5.42060124E-09
  1 884 6.42911116E-09
  1 885 5.16044805E-09
  1 886 1.12408437E-08
  1 887 7.72604510E-09
  1 888 1.16045919E-08
  1 889 6.29763761E-09
  1 890 1.03845552E-08
  1 891 7.72412326E-09
  1 892 6.36419109E-09
  1 893 5.66362049E-09
  1 894 8.67064837E-09
  1 895 7.23741610E-09
  1 896 6.52603610E-09
  1 897 6.82909502E-09
  1 898 5.63652264E-09
  1 899 8.09516152E-09
  1 900 1.16154845E-08
  1 901 7.63051063E-09
  1 902 5.71291584E-09
  1 903 8.93840424E-09
  1 904 8.96187769E-09
  1 905 9.03156733E-09
  1 906 5.94288136E-09
  1 907 5.86215083E-09
  1 908 6.27715839E-09
  1 909 5.69070974E-09
  1 910 5.85875150E-09
  1 911 5.70548258E-09
  1 912 5.62514790E-09
  1 913 5.76184221E-09
  1 914 5.92525787E-09
  1 915 5.78418255E-09
  1 916 5.82622680E-09
  1 917 7.45728369E-09
  1 918 8.97601098E-09
  1 919 5.57181482E-09
  1 920 5.70989165E-09
  1 921 5.54401148E-09
  1 922 5.61230159E-09
  1 923 5.56149973E-09
  1 924 5.55859287E-09
  1 925 5.54972109E-09
  1 926 5.42724348E-09
  1 927 5.52473694E-09
  1 928 5.52821845E-09
  1 929 5.53697449E-09
  1 930 5.58378252E-09
  1 931 5.52318458E-09
  1 932 5.52399748E-09
  1 933 5.54347623E-09
  1 934 5.52414421E-09
  1 935 5.53721068E-09
  1 936 5.53445425E-09
  1 937 5.53216480E-09
  1 938 7.78380276E-09
  1 939 5.53025112E-09
  1 940 5.52138742E-09
  1 941 5.57142339E-09
  1 942 5.52818900E-09
  1 943 5.54851839E-09
  1 944 5.53830616E-09
  1 945 5.53461953E-09
  1 946 5.53405433E-09
  1 947 5.52403004E-09
  1 948 5.51269420E-09
  1 949 7.80152234E-09
  1 950 5.53338402E-09
  1 951 5.52912118E-09
  1 952 5.49539802E-09
  1 953 7.47469036E-09
  1 954 5.55514435E-09
  1 955 5.65415486E-09
  1 956 4.97898345E-09
  1 957 8.83571061E-09
  1 958 5.55028747E-09
  1 959 5.53745466E-09
  1 960 6.86498513E-09
  1 961 8.85485154E-09
  1 962 7.15140824E-09
  1 963 5.51913493E-09
  1 964 5.52506091E-09
  1 965 7.60387543E-09
  1 966 6.90636700E-09
  1 967 5.52498542E-09
  1 968 7.29697856E-09
  1 969 5.50939798E-09
  1 970 5.49896457E-09
  1 971 8.86943100E-09
  1 972 5.52936420E-09
  1 973 5.49930938E-09
  1 974 5.51798216E-09
  1 975 5.50012997E-09
  1 976 7.50689220E-09
  1 977 5.51343297E-09
  1 978 5.49943427E-09
  1 979 7.27848294E-09
  1 980 7.77065654E-09
  1 981 5.49938058E-09
  1 982 7.47275735E-09
  1 983 5.56385734E-09
  1 984 5.64731049E-09
  1 985 5.73957133E-09
  1 986 5.65099493E-09
  1 987 5.49989378E-09
  1 988 5.84258169E-09
  1 989 5.86467176E-09
  1 990 5.05222162E-09
  1 991 5.65817963E-09
  1 992 8.86190477E-09
  1 993 5.62596354E-09
  1 994 7.71895495E-09
  1 995 6.14533586E-09
  1 996 5.84333759E-09
  1 997 6.46948472E-09
  1 998 6.66502128E-09
  1 999 6.57470487E-09
  1 1000 6.46545226E-09
  1 1001 5.84356790E-09
  1 1002 7.67238048E-09
  1 1003 6.48894160E-09
  1 1004 6.20070710E-09
  1 1005 6.32405857E-09
  1 1006 6.58366749E-09
  1 1007 6.65789526E-09
  1 1008 6.62794504E-09
  1 1009 6.66432160E-09
  1 1010 6.60691396E-09
  1 1011 6.12924933E-09
  1 1012 6.57588449E-09
  1 1013 6.62487852E-09
  1 1014 4.11198616E-09
  1 1015 6.77760595E-09
  1 1016 6.75664497E-09
  1 1017 6.84055205E-09
  1 1018 6.79725422E-09
  1 1019 6.83431064E-09
  1 1020 6.80239722E-09
  1 1021 6.87866211E-09
  1 1022 6.84432828E-09
  1 1023 6.72642488E-09
  1 1024 6.80873526E-09
  1 1025 6.73690584E-09
  1 1026 6.70456844E-09
  1 1027 6.79068641E-09
  1 1028 6.71195119E-09
  1 1029 6.70068700E-09
  1 1030 6.87022343E-09
  1 1031 6.99050084E-09
  1 1032 6.68554867E-09
  1 1033 6.83878665E-09
  1 1034 6.64233709E-09
  1 1035 6.85576111E-09
  1 1036 6.69250205E-09
  1 1037 6.85274845E-09
  1 1038 6.62884995E-09
  1 1039 7.44139410E-09
  1 1040 6.56051210E-09
  1 1041 7.70230452E-09
  1 1042 6.59405766E-09
  1 1043 6.63374441E-09
  1 1044 8.82771344E-09
  1 1045 6.61723443E-09
  1 1046 7.45459667E-09
  1 1047 6.67428519E-09
  1 1048 6.63184831E-09
  1 1049 6.70689428E-09
  1 1050 8.84989670E-09
  1 1051 6.72839414E-09
  1 1052 6.70919574E-09
  1 1053 6.72516195E-09
  1 1054 6.73130619E-09
  1 1055 6.65029307E-09
  1 1056 8.83025510E-09
  1 1057 6.73896010E-09
  1 1058 8.86251308E-09
  1 1059 7.72580584E-09
  1 1060 6.06649058E-09
  1 1061 6.70358838E-09
  1 1062 6.13323274E-09
  1 1063 6.71232873E-09
  1 1064 6.71748309E-09
  1 1065 6.71877035E-09
  1 1066 6.70784150E-09
  1 1067 6.71740343E-09
  1 1068 6.70610169E-09
  1 1069 6.31890443E-09
  1 1070 6.59725125E-09
  1 1071 6.62712201E-09
  1 1072 8.81902072E-09
  1 1073 6.62691621E-09
  1 1074 6.62144234E-09
  1 1075 6.43338168E-09
  1 1076 7.80739296E-09
  1 1077 6.64140607E-09
  1 1078 6.07296533E-09
  1 1079 6.72975187E-09
  1 1080 8.82487906E-09
  1 1081 6.67032047E-09
  1 1082 9.13754247E-09
  1 1083 6.61275355E-09
  1 1084 8.80060038E-09
  1 1085 6.87644099E-09
  1 1086 8.99871752E-09
  1 1087 6.42534173E-09
  1 1088 5.91834197E-09
  1 1089 6.27127480E-09
  1 1090 6.17774010E-09
  1 1091 6.88715832E-09
  1 1092 6.65096039E-09
  1 1093 8.84618077E-09
  1 1094 6.43716368E-09
  1 1095 8.88997353E-09
  1 1096 6.46259767E-09
  1 1097 6.38817298E-09
  1 1098 6.22271734E-09
  1 1099 7.73558891E-09
  1 1100 8.82818516E-09
  1 1101 5.99286194E-09
  1 1102 6.30656170E-09
  1 1103 6.50981812E-09
  1 1104 5.95942577E-09
  1 1105 6.25134910E-09
  1 1106 6.25515717E-09
  1 1107 8.98396330E-09
  1 1108 8.59283445E-09
  1 1109 5.86496213E-09
  1 1110 6.01532846E-09
  1 1111 9.08904909E-09
  1 1112 8.89506801E-09
  1 1113 5.71683260E-09
  1 1114 5.56439227E-09
  1 1115 9.23688703E-09
  1 1116 5.26930501E-09
  1 1117 5.94179973E-09
  1 1118 5.89454601E-09
  1 1119 5.50428097E-09
  1 1120 5.55991517E-09
  1 1121 5.63515030E-09
  1 1122 5.88691490E-09
  1 1123 5.36431074E-09
  1 1124 5.38505589E-09
  1 1125 5.85465991E-09
  1 1126 5.67423195E-09
  1 1127 5.72915753E-09
  1 1128 5.61709945E-09
  1 1129 9.14868073E-09
  1 1130 5.13950096E-09
  1 1131 7.74560111E-09
  1 1132 6.08683544E-09
  1 1133 5.95458380E-09
  1 1134 5.50051784E-09
  1 1135 5.55925607E-09
  1 1136 7.76438536E-09
  1 1137 5.71431561E-09
  1 1138 6.27625956E-09
  1 1139 7.94480025E-09
  1 1140 5.54792774E-09
  1 1141 5.45359014E-09
  1 1142 7.73618179E-09
  1 1143 5.44428458E-09
  1 1144 7.40014518E-09
  1 1145 5.43508228E-09
  1 1146 7.38121436E-09
  1 1147 5.44285487E-09
  1 1148 8.90972664E-09
  1 1149 5.44047257E-09
  1 1150 5.91467111E-09
  1 1151 5.41602607E-09
  1 1152 5.33129569E-09
  1 1153 5.40886574E-09
  1 1154 7.69253236E-09
  1 1155 5.21831401E-09
  1 1156 5.38341951E-09
  1 1157 5.48569894E-09
  1 1158 5.40473870E-09
  1 1159 5.41427235E-09
  1 1160 5.29260315E-09
  1 1161 5.41763750E-09
  1 1162 5.10585149E-09
  1 1163 5.40567348E-09
  1 1164 4.19951243E-09
  1 1165 5.44729002E-09
  1 1166 5.10323575E-09
  1 1167 8.73736351E-09
  1 1168 7.34547909E-09
  1 1169 7.46123527E-09
  1 1170 5.11509795E-09
  1 1171 5.05210547E-09
  1 1172 5.44336880E-09
  1 1173 5.31263806E-09
  1 1174 7.23985707E-09
  1 1175 6.61419124E-09
  1 1176 5.23278579E-09
  1 1177 5.02474096E-09
  1 1178 5.17738924E-09
  1 1179 5.11011891E-09
  1 1180 5.13011618E-09
  1 1181 5.18914682E-09
  1 1182 5.36865127E-09
  1 1183 5.39048953E-09
  1 1184 5.11113224E-09
  1 1185 5.04802872E-09
  1 1186 5.05727483E-09
  1 1187 5.05599695E-09
  1 1188 8.88015257E-09
  1 1189 5.07275499E-09
  1 1190 5.26673086E-09
  1 1191 5.23292577E-09
  1 1192 5.02796190E-09
  1 1193 4.98448017E-09
  1 1194 5.01853962E-09
  1 1195 5.57354766E-09
  1 1196 5.17110132E-09
  1 1197 5.24538953E-09
  1 1198 5.31600296E-09
  1 1199 5.84273067E-09
  1 1200 5.31026661E-09
  1 1201 5.70495162E-09
  1 1202 5.96717014E-09
  1 1203 6.58444253E-09
  1 1204 5.65023209E-09
  1 1205 5.34137937E-09
  1 1206 5.81952402E-09
  1 1207 6.78487046E-09
  1 1208 6.92898835E-09
  1 1209 7.02155188E-09
  1 1210 6.35598413E-09
  1 1211 7.02872917E-09
  1 1212 6.96749513E-09
  1 1213 6.64506386E-09
  1 1214 6.45864951E-09
  1 1215 6.94175208E-09
  1 1216 5.91235696E-09
  1 1217 6.11800598E-09
  1 1218 5.51287736E-09
  1 1219 5.46896989E-09
  1 1220 6.86128548E-09
  1 1221 4.34013700E-09
  1 1222 5.05255682E-09
  1 1223 6.49810903E-09
  1 1224 5.05324525E-09
  1 1225 6.86011262E-09
  1 1226 5.23166788E-09
  1 1227 7.16173494E-09
  1 1228 5.41271498E-09
  1 1229 5.52196953E-09
  1 1230 5.23113696E-09
  1 1231 5.23194136E-09
  1 1232 4.06821622E-09
  1 1233 7.15636332E-09
  1 1234 5.23213456E-09
  1 1235 5.31801188E-09
  1 1236 4.08195684E-09
  1 1237 5.23377492E-09
  1 1238 5.23836470E-09
  1 1239 7.01470666E-09
  1 1240 5.05803542E-09
  1 1241 6.84470986E-09
  1 1242 7.19164900E-09
  1 1243 7.16741729E-09
  1 1244 6.97771061E-09
  1 1245 7.20139954E-09
  1 1246 7.14255250E-09
  1 1247 6.67023722E-09
  1 1248 6.90623235E-09
  1 1249 7.16602145E-09
  1 1250 7.01611563E-09
  1 1251 6.73689084E-09
  1 1252 7.06908309E-09
  1 1253 6.55458167E-09
  1 1254 6.41542698E-09
  1 1255 6.37296991E-09
  1 1256 6.28147673E-09
  1 1257 6.38469929E-09
  1 1258 6.44535719E-09
  1 1259 6.72558182E-09
  1 1260 6.78025793E-09
  1 1261 6.60792486E-09
  1 1262 6.99729270E-09
  1 1263 7.05658117E-09
  1 1264 5.58783916E-09
  1 1265 6.96739158E-09
  1 1266 5.06022418E-09
  1 1267 8.55059827E-09
  1 1268 5.98907109E-09
  1 1269 5.58942559E-09
  1 1270 7.69115849E-09
  1 1271 5.68303004E-09
  1 1272 5.59234637E-09
  1 1273 5.96276609E-09
  1 1274 7.70094354E-09
  1 1275 5.73152478E-09
  1 1276 5.50366437E-09
  1 1277 5.45737407E-09
  1 1278 7.30643812E-09
  1 1279 5.31208785E-09
  1 1280 5.22479398E-09
  1 1281 8.67375392E-09
  1 1282 6.74850923E-09
  1 1283 6.41138592E-09
  1 1284 5.16256644E-09
  1 1285 7.73172210E-09
  1 1286 6.29909477E-09
  1 1287 6.74534948E-09