# File generated by Flopy version 3.9.1 on 02/09/2026 at 23:33:23.
BEGIN options
  SAVE_FLOWS
END options

BEGIN dimensions
  MAXBOUND  10279
  NSEG  1
END dimensions

BEGIN period  1
  1 3     140.00000000  4.06025080E-09       2.00000000
  1 4     130.00000000  4.06025080E-09       2.00000000
  1 5     133.00000000  4.06025080E-09       2.00000000
  1 6     128.00000000  4.06025080E-09       2.00000000
  1 7     149.00000000  4.06025080E-09       2.00000000
  1 8     131.00000000  4.06025080E-09       2.00000000
  1 9     150.00000000  4.02770395E-09       2.00000000
  1 10     135.00000000  4.06025080E-09       2.00000000
  1 11     130.00000000  4.06025080E-09       2.00000000
  1 12     130.00000000  4.06025080E-09       2.00000000
  1 13     152.00000000  4.02770395E-09       2.00000000
  1 14     132.00000000  4.06025080E-09       2.00000000
  1 15     150.00000000  4.02770395E-09       2.00000000
  1 16     150.00000000  4.02770395E-09       2.00000000
  1 17     113.00000000  4.02770395E-09       2.00000000
  1 18     143.00000000  4.02770395E-09       2.00000000
  1 19     134.00000000  4.06025080E-09       2.00000000
  1 21     132.00000000  4.06025080E-09       2.00000000
  1 22     135.00000000  4.06025080E-09       2.00000000
  1 23     140.00000000  4.06025080E-09       2.00000000
  1 24     130.00000000  4.06025080E-09       2.00000000
  1 25     148.00000000  4.06025080E-09       2.00000000
  1 26     140.00000000  4.06025080E-09       2.00000000
  1 27     137.00000000  4.06025080E-09       2.00000000
  1 28     139.00000000  4.06025080E-09       2.00000000
  1 29     130.00000000  4.06025080E-09       2.00000000
  1 30     129.00000000  4.06025080E-09       2.00000000
  1 31     121.00000000  4.06025080E-09       2.00000000
  1 32     133.00000000  4.06025080E-09       2.00000000
  1 33     132.00000000  4.06025080E-09       2.00000000
  1 34     133.00000000  4.06025080E-09       2.00000000
  1 35     149.00000000  4.02770395E-09       2.00000000
  1 36     129.00000000  4.06025080E-09       2.00000000
  1 37     132.00000000  4.06025080E-09       2.00000000
  1 38     135.00000000  4.06025080E-09       2.00000000
  1 39     133.00000000  4.06025080E-09       2.00000000
  1 40     140.00000000  4.06025080E-09       2.00000000
  1 41     149.00000000  4.06025080E-09       2.00000000
  1 42     136.00000000  4.06025080E-09       2.00000000
  1 43      94.00000000  4.08171452E-09       2.00000000
  1 44     105.00000000  4.08171452E-09       2.00000000
  1 45     103.00000000  4.08171452E-09       2.00000000
  1 46      93.00000000  4.08171452E-09       2.00000000
  1 47      97.00000000  4.08171452E-09       2.00000000
  1 48      88.00000000  4.08171452E-09       2.00000000
  1 49      88.00000000  4.08616829E-09       2.00000000
  1 50      93.00000000  4.08171452E-09       2.00000000
  1 51      75.00000000  4.08616829E-09       2.00000000
  1 52     106.00000000  4.08171452E-09       2.00000000
  1 53      80.00000000  4.08616829E-09       2.00000000
  1 54      67.00000000  4.08616829E-09       2.00000000
  1 55      98.00000000  4.08171452E-09       2.00000000
  1 56      96.00000000  4.08171452E-09       2.00000000
  1 57      89.00000000  4.08616829E-09       2.00000000
  1 58      76.00000000  4.08171452E-09       2.00000000
  1 59     105.00000000  4.08171452E-09       2.00000000
  1 60      76.00000000  4.08616829E-09       2.00000000
  1 61      71.00000000  3.49420004E-09       2.00000000
  1 63     140.00000000  4.02770395E-09       2.00000000
  1 64     132.00000000  4.02770395E-09       2.00000000
  1 65     130.00000000  4.02770395E-09       2.00000000
  1 66      97.00000000  4.03052924E-09       2.00000000
  1 67     132.00000000  4.02770395E-09       2.00000000
  1 68     136.00000000  4.02770395E-09       2.00000000
  1 69     142.00000000  4.02770395E-09       2.00000000
  1 70     134.00000000  4.02770395E-09       2.00000000
  1 72     131.00000000  4.02770395E-09       2.00000000
  1 73      89.00000000  4.08616829E-09       2.00000000
  1 74      89.00000000  4.08616829E-09       2.00000000
  1 75      81.00000000  4.08616829E-09       2.00000000
  1 76      87.00000000  4.08616829E-09       2.00000000
  1 77      72.00000000  4.08616829E-09       2.00000000
  1 78      97.00000000  3.55499341E-09       2.00000000
  1 79      75.00000000  4.08616829E-09       2.00000000
  1 80      73.00000000  4.08616829E-09       2.00000000
  1 82      79.00000000  4.08616829E-09       2.00000000
  1 83     130.00000000  4.02770395E-09       2.00000000
  1 84      80.00000000  3.97766797E-09       2.00000000
  1 85     132.00000000  4.02770395E-09       2.00000000
  1 86      74.00000000  4.08616829E-09       2.00000000
  1 87     146.00000000  4.02770395E-09       2.00000000
  1 89     124.00000000  4.12984358E-09       2.00000000
  1 90      82.00000000  4.08339007E-09       2.00000000
  1 91     128.00000000  4.06025080E-09       2.00000000
  1 92     130.00000000  4.06025080E-09       2.00000000
  1 93     129.00000000  4.06025080E-09       2.00000000
  1 94     129.00000000  4.06025080E-09       2.00000000
  1 95     129.00000000  4.08339007E-09       2.00000000
  1 96     129.00000000  4.06025080E-09       2.00000000
  1 97     121.00000000  4.06025080E-09       2.00000000
  1 98     129.00000000  4.06025080E-09       2.00000000
  1 99     128.00000000  4.06025080E-09       2.00000000
  1 100     137.00000000  4.06025080E-09       2.00000000
  1 101     126.00000000  4.06025080E-09       2.00000000
  1 102     128.00000000  4.06025080E-09       2.00000000
  1 103     128.00000000  4.06025080E-09       2.00000000
  1 104     125.00000000  4.06025080E-09       2.00000000
  1 105     128.00000000  4.06025080E-09       2.00000000
  1 106     123.00000000  4.06025080E-09       2.00000000
  1 107     129.00000000  4.06025080E-09       2.00000000
  1 108      82.00000000  4.08339007E-09       2.00000000
  1 109     121.00000000  4.06025080E-09       2.00000000
  1 110     126.00000000  4.06025080E-09       2.00000000
  1 111     125.00000000  4.06025080E-09       2.00000000
  1 112     124.00000000  4.06025080E-09       2.00000000
  1 113     119.00000000  4.06025080E-09       2.00000000
  1 114     123.00000000  4.06025080E-09       2.00000000
  1 115     122.00000000  4.06025080E-09       2.00000000
  1 116     120.00000000  4.06025080E-09       2.00000000
  1 117     125.00000000  4.06025080E-09       2.00000000
  1 118     119.00000000  4.06025080E-09       2.00000000
  1 119     118.00000000  4.06025080E-09       2.00000000
  1 120     104.00000000  4.06025080E-09       2.00000000
  1 121     140.00000000  4.06025080E-09       2.00000000
  1 122     108.00000000  4.06025080E-09       2.00000000
  1 123     108.00000000  4.06025080E-09       2.00000000
  1 124     109.00000000  4.06025080E-09       2.00000000
  1 125     107.00000000  4.06025080E-09       2.00000000
  1 126     113.00000000  4.06025080E-09       2.00000000
  1 127     109.00000000  4.06025080E-09       2.00000000
  1 128     113.00000000  4.06025080E-09       2.00000000
  1 129     121.00000000  4.06025080E-09       2.00000000
  1 130     122.00000000  4.06025080E-09       2.00000000
  1 131     126.00000000  4.06025080E-09       2.00000000
  1 132     120.00000000  4.06025080E-09       2.00000000
  1 133     149.00000000  4.06025080E-09       2.00000000
  1 134     149.00000000  4.06025080E-09       2.00000000
  1 135     149.00000000  4.06025080E-09       2.00000000
  1 136     149.00000000  4.06025080E-09       2.00000000
  1 137     149.00000000  4.06025080E-09       2.00000000
  1 138     149.00000000  4.06025080E-09       2.00000000
  1 139     137.00000000  4.06025080E-09       2.00000000
  1 140     149.00000000  4.06025080E-09       2.00000000
  1 141     140.00000000  4.06025080E-09       2.00000000
  1 142     140.00000000  4.06025080E-09       2.00000000
  1 143     140.00000000  4.06025080E-09       2.00000000
  1 144     141.00000000  4.06025080E-09       2.00000000
  1 145     149.00000000  4.06025080E-09       2.00000000
  1 146     148.00000000  4.06025080E-09       2.00000000
  1 147     149.00000000  4.06025080E-09       2.00000000
  1 148     147.00000000  4.06025080E-09       2.00000000
  1 149     149.00000000  4.06025080E-09       2.00000000
  1 150     142.00000000  4.06025080E-09       2.00000000
  1 151     148.00000000  4.06025080E-09       2.00000000
  1 153     149.00000000  4.06025080E-09       2.00000000
  1 154     147.00000000  4.06025080E-09       2.00000000
  1 155     148.00000000  4.06025080E-09       2.00000000
  1 156     149.00000000  4.06025080E-09       2.00000000
  1 157     149.00000000  4.06025080E-09       2.00000000
  1 158     148.00000000  4.06025080E-09       2.00000000
  1 159     148.00000000  4.06025080E-09       2.00000000
  1 160     148.00000000  4.06025080E-09       2.00000000
  1 161     102.00000000  4.06025080E-09       2.00000000
  1 162     156.00000000  4.02770395E-09       2.00000000
  1 163     149.00000000  4.06025080E-09       2.00000000
  1 164     148.00000000  4.06025080E-09       2.00000000
  1 165     148.00000000  4.06025080E-09       2.00000000
  1 166     148.00000000  4.06025080E-09       2.00000000
  1 167     148.00000000  4.06025080E-09       2.00000000
  1 168     148.00000000  4.06025080E-09       2.00000000
  1 169     149.00000000  4.06025080E-09       2.00000000
  1 170     148.00000000  4.06025080E-09       2.00000000
  1 171     148.00000000  4.06025080E-09       2.00000000
  1 172     148.00000000  4.06025080E-09       2.00000000
  1 173     134.00000000  4.02770395E-09       2.00000000
  1 174     149.00000000  4.06025080E-09       2.00000000
  1 176     142.00000000  4.06025080E-09       2.00000000
  1 177     153.00000000  4.02770395E-09       2.00000000
  1 178      64.00000000  3.49420004E-09       2.00000000
  1 179      82.00000000  4.08339007E-09       2.00000000
  1 180     148.00000000  4.06025080E-09       2.00000000
  1 181      94.00000000  4.08616829E-09       2.00000000
  1 182      72.00000000  4.08616829E-09       2.00000000
  1 183      79.00000000  4.07806677E-09       2.00000000
  1 184      79.00000000  4.07806677E-09       2.00000000
  1 185      79.00000000  4.07806677E-09       2.00000000
  1 186      78.00000000  4.07806677E-09       2.00000000
  1 187      80.00000000  4.08616829E-09       2.00000000
  1 189      78.00000000  4.07806677E-09       2.00000000
  1 190      71.00000000  4.24052837E-09       2.00000000
  1 191      78.00000000  4.07806677E-09       2.00000000
  1 192      56.00000000  4.24052837E-09       2.00000000
  1 193      77.00000000  4.07806677E-09       2.00000000
  1 194      78.00000000  4.07806677E-09       2.00000000
  1 195      79.00000000  4.07806677E-09       2.00000000
  1 196      79.00000000  4.07806677E-09       2.00000000
  1 197      77.00000000  4.07806677E-09       2.00000000
  1 198      79.00000000  4.07806677E-09       2.00000000
  1 199      79.00000000  4.07806677E-09       2.00000000
  1 201      76.00000000  4.07806677E-09       2.00000000
  1 202      78.00000000  4.07806677E-09       2.00000000
  1 203      76.00000000  4.07806677E-09       2.00000000
  1 204      71.00000000  4.08616829E-09       2.00000000
  1 205      75.00000000  4.07806677E-09       2.00000000
  1 206      75.00000000  4.07806677E-09       2.00000000
  1 207      76.00000000  4.07806677E-09       2.00000000
  1 208      80.00000000  4.07806677E-09       2.00000000
  1 209      80.00000000  4.07806677E-09       2.00000000
  1 210      80.00000000  4.07806677E-09       2.00000000
  1 211      79.00000000  4.07806677E-09       2.00000000
  1 212      79.00000000  4.07806677E-09       2.00000000
  1 213      79.00000000  4.07806677E-09       2.00000000
  1 214      80.00000000  4.07806677E-09       2.00000000
  1 215      79.00000000  4.07806677E-09       2.00000000
  1 216      77.00000000  4.07806677E-09       2.00000000
  1 217      79.00000000  4.07806677E-09       2.00000000
  1 218      78.00000000  4.07806677E-09       2.00000000
  1 219      76.00000000  4.07806677E-09       2.00000000
  1 220      75.00000000  4.07806677E-09       2.00000000
  1 221     106.00000000  4.08616829E-09       2.00000000
  1 222      80.00000000  4.07806677E-09       2.00000000
  1 223      76.00000000  4.07806677E-09       2.00000000
  1 224      56.00000000  4.24052837E-09       2.00000000
  1 225      80.00000000  4.07806677E-09       2.00000000
  1 226      78.00000000  4.07806677E-09       2.00000000
  1 227      80.00000000  4.07806677E-09       2.00000000
  1 228      79.00000000  4.07806677E-09       2.00000000
  1 229      80.00000000  4.07806677E-09       2.00000000
  1 230      79.00000000  4.07806677E-09       2.00000000
  1 231      65.00000000  4.24052837E-09       2.00000000
  1 232      69.00000000  4.24052837E-09       2.00000000
  1 233      67.00000000  4.24052837E-09       2.00000000
  1 234      36.00000000  4.14290469E-09       2.00000000
  1 235      80.00000000  4.07806677E-09       2.00000000
  1 236      79.00000000  4.07806677E-09       2.00000000
  1 237      79.00000000  4.07806677E-09       2.00000000
  1 238      80.00000000  4.07806677E-09       2.00000000
  1 239      80.00000000  4.07806677E-09       2.00000000
  1 240      80.00000000  4.07806677E-09       2.00000000
  1 241      79.00000000  4.07806677E-09       2.00000000
  1 242      61.00000000  4.24052837E-09       2.00000000
  1 243      79.00000000  4.07806677E-09       2.00000000
  1 244      79.00000000  4.07806677E-09       2.00000000
  1 245      79.00000000  4.07806677E-09       2.00000000
  1 246      80.00000000  4.07806677E-09       2.00000000
  1 247      78.00000000  4.07806677E-09       2.00000000
  1 248      80.00000000  4.07806677E-09       2.00000000
  1 249      80.00000000  4.07806677E-09       2.00000000
  1 250      80.00000000  4.07806677E-09       2.00000000
  1 251      80.00000000  4.07806677E-09       2.00000000
  1 252      79.00000000  4.07806677E-09       2.00000000
  1 253      77.00000000  4.07806677E-09       2.00000000
  1 254      79.00000000  4.07806677E-09       2.00000000
  1 255      82.00000000  4.07806677E-09       2.00000000
  1 256      83.00000000  4.07806677E-09       2.00000000
  1 257      77.00000000  4.07806677E-09       2.00000000
  1 258      78.00000000  4.07806677E-09       2.00000000
  1 259      78.00000000  4.07806677E-09       2.00000000
  1 260      92.00000000  4.07806677E-09       2.00000000
  1 261      78.00000000  4.07806677E-09       2.00000000
  1 262      79.00000000  4.07806677E-09       2.00000000
  1 263      80.00000000  4.07806677E-09       2.00000000
  1 264      80.00000000  4.07806677E-09       2.00000000
  1 265      79.00000000  4.07806677E-09       2.00000000
  1 266      48.00000000  4.10774881E-09       2.00000000
  1 267      76.00000000  4.07806677E-09       2.00000000
  1 268       2.00000000  3.92212840E-09       2.00000000
  1 269      75.00000000  4.08616829E-09       2.00000000
  1 270      74.00000000  4.08616829E-09       2.00000000
  1 271      76.00000000  4.08616829E-09       2.00000000
  1 272      70.00000000  3.97766797E-09       2.00000000
  1 273      82.00000000  4.08616829E-09       2.00000000
  1 274      74.00000000  4.08616829E-09       2.00000000
  1 275      76.00000000  4.08616829E-09       2.00000000
  1 276      60.00000000  4.08616829E-09       2.00000000
  1 277      83.00000000  4.08616829E-09       2.00000000
  1 278      86.00000000  4.08616829E-09       2.00000000
  1 279      87.00000000  4.08616829E-09       2.00000000
  1 280      82.00000000  4.08616829E-09       2.00000000
  1 281      70.00000000  3.97766797E-09       2.00000000
  1 282      70.00000000  3.97766797E-09       2.00000000
  1 283      69.00000000  3.97766797E-09       2.00000000
  1 284      72.00000000  4.08616829E-09       2.00000000
  1 285      70.00000000  3.97766797E-09       2.00000000
  1 286      68.00000000  3.97766797E-09       2.00000000
  1 287      74.00000000  4.08616829E-09       2.00000000
  1 289      77.00000000  3.97766797E-09       2.00000000
  1 290      74.00000000  3.97766797E-09       2.00000000
  1 291      79.00000000  4.07806677E-09       2.00000000
  1 292      73.00000000  3.97766797E-09       2.00000000
  1 293      75.00000000  3.97766797E-09       2.00000000
  1 294      75.00000000  3.97766797E-09       2.00000000
  1 295      75.00000000  3.97766797E-09       2.00000000
  1 296      73.00000000  3.97766797E-09       2.00000000
  1 298      75.00000000  3.97766797E-09       2.00000000
  1 299      70.00000000  3.97766797E-09       2.00000000
  1 300      70.00000000  3.97766797E-09       2.00000000
  1 301      70.00000000  3.97766797E-09       2.00000000
  1 302      69.00000000  3.97766797E-09       2.00000000
  1 303      70.00000000  3.97766797E-09       2.00000000
  1 304      70.00000000  3.97766797E-09       2.00000000
  1 305      70.00000000  3.97766797E-09       2.00000000
  1 306      73.00000000  3.97766797E-09       2.00000000
  1 307      71.00000000  3.97766797E-09       2.00000000
  1 308      71.00000000  4.08616829E-09       2.00000000
  1 309      75.00000000  3.97766797E-09       2.00000000
  1 310      69.00000000  3.97766797E-09       2.00000000
  1 311      70.00000000  3.97766797E-09       2.00000000
  1 312      73.00000000  3.97766797E-09       2.00000000
  1 313      70.00000000  4.08616829E-09       2.00000000
  1 314      69.00000000  4.08616829E-09       2.00000000
  1 315      69.00000000  4.08616829E-09       2.00000000
  1 316      69.00000000  4.08616829E-09       2.00000000
  1 317      79.00000000  4.07806677E-09       2.00000000
  1 318      80.00000000  4.07806677E-09       2.00000000
  1 319      86.00000000  4.08616829E-09       2.00000000
  1 320      70.00000000  4.08616829E-09       2.00000000
  1 321      77.00000000  4.07806677E-09       2.00000000
  1 322      69.00000000  4.08616829E-09       2.00000000
  1 323      77.00000000  4.07806677E-09       2.00000000
  1 324      78.00000000  4.07806677E-09       2.00000000
  1 325      77.00000000  4.07806677E-09       2.00000000
  1 326      80.00000000  4.07806677E-09       2.00000000
  1 327      79.00000000  4.07806677E-09       2.00000000
  1 328      78.00000000  4.07806677E-09       2.00000000
  1 329      69.00000000  4.08616829E-09       2.00000000
  1 330      78.00000000  4.07806677E-09       2.00000000
  1 331      79.00000000  4.07806677E-09       2.00000000
  1 332      69.00000000  4.08616829E-09       2.00000000
  1 333      71.00000000  4.08616829E-09       2.00000000
  1 334      71.00000000  4.08616829E-09       2.00000000
  1 335      81.00000000  4.08616829E-09       2.00000000
  1 336      79.00000000  4.08616829E-09       2.00000000
  1 337      75.00000000  4.08616829E-09       2.00000000
  1 338      80.00000000  4.08616829E-09       2.00000000
  1 339      90.00000000  4.08616829E-09       2.00000000
  1 340      85.00000000  4.08616829E-09       2.00000000
  1 341      80.00000000  4.08616829E-09       2.00000000
  1 342      74.00000000  4.08616829E-09       2.00000000
  1 343      57.00000000  3.96875999E-09       2.00000000
  1 344      78.00000000  4.08616829E-09       2.00000000
  1 345      49.00000000  3.98043154E-09       2.00000000
  1 346      72.00000000  4.08616829E-09       2.00000000
  1 347      57.00000000  3.94027122E-09       2.00000000
  1 348      73.00000000  4.08616829E-09       2.00000000
  1 349      49.00000000  3.94027122E-09       2.00000000
  1 350      48.00000000  3.94027122E-09       2.00000000
  1 351      69.00000000  3.97766797E-09       2.00000000
  1 352      49.00000000  3.94027122E-09       2.00000000
  1 353      80.00000000  3.97766797E-09       2.00000000
  1 354      70.00000000  4.08616829E-09       2.00000000
  1 355      77.00000000  4.08616829E-09       2.00000000
  1 356      77.00000000  4.07806677E-09       2.00000000
  1 357      72.00000000  3.97766797E-09       2.00000000
  1 358      70.00000000  4.08616829E-09       2.00000000
  1 359      74.00000000  4.08616829E-09       2.00000000
  1 360      60.00000000  4.24052837E-09       2.00000000
  1 361     112.00000000  4.06025080E-09       2.00000000
  1 362      72.00000000  3.49420004E-09       2.00000000
  1 363     130.00000000  3.93281807E-09       2.00000000
  1 364     107.00000000  3.72400200E-09       2.00000000
  1 365     110.00000000  3.72400200E-09       2.00000000
  1 366     120.00000000  3.93281807E-09       2.00000000
  1 367     109.00000000  3.72400200E-09       2.00000000
  1 368     108.00000000  3.72400200E-09       2.00000000
  1 369     109.00000000  3.72400200E-09       2.00000000
  1 370     108.00000000  3.72400200E-09       2.00000000
  1 371     109.00000000  3.72400200E-09       2.00000000
  1 372     109.00000000  3.72400200E-09       2.00000000
  1 373     109.00000000  3.72400200E-09       2.00000000
  1 374     109.00000000  3.72400200E-09       2.00000000
  1 375     109.00000000  3.72400200E-09       2.00000000
  1 376     109.00000000  3.72400200E-09       2.00000000
  1 377     109.00000000  3.72400200E-09       2.00000000
  1 378     109.00000000  3.72400200E-09       2.00000000
  1 379     109.00000000  3.72400200E-09       2.00000000
  1 380     109.00000000  3.72400200E-09       2.00000000
  1 381     108.00000000  3.72400200E-09       2.00000000
  1 382     110.00000000  3.72400200E-09       2.00000000
  1 383     109.00000000  3.72400200E-09       2.00000000
  1 384     109.00000000  3.72400200E-09       2.00000000
  1 385     110.00000000  3.72400200E-09       2.00000000
  1 386      69.00000000  4.08616829E-09       2.00000000
  1 387     129.00000000  3.72400200E-09       2.00000000
  1 388      90.00000000  4.15786738E-09       2.00000000
  1 389     125.00000000  3.93281807E-09       2.00000000
  1 390     110.00000000  3.72400200E-09       2.00000000
  1 391     109.00000000  3.72400200E-09       2.00000000
  1 392     109.00000000  3.72400200E-09       2.00000000
  1 393      88.00000000  4.13709778E-09       2.00000000
  1 394     110.00000000  3.72400200E-09       2.00000000
  1 395     110.00000000  3.72400200E-09       2.00000000
  1 396     110.00000000  3.72400200E-09       2.00000000
  1 397     110.00000000  3.72400200E-09       2.00000000
  1 398     110.00000000  3.72400200E-09       2.00000000
  1 399     110.00000000  3.72400200E-09       2.00000000
  1 400     110.00000000  3.72400200E-09       2.00000000
  1 401     120.00000000  3.72400200E-09       2.00000000
  1 402     109.00000000  3.72400200E-09       2.00000000
  1 404      89.00000000  4.13709778E-09       2.00000000
  1 405     110.00000000  3.72400200E-09       2.00000000
  1 406     110.00000000  3.72400200E-09       2.00000000
  1 407     110.00000000  3.72400200E-09       2.00000000
  1 408     110.00000000  3.72400200E-09       2.00000000
  1 409     102.00000000  3.72400200E-09       2.00000000
  1 410     110.00000000  3.72400200E-09       2.00000000
  1 411     110.00000000  3.72400200E-09       2.00000000
  1 412     101.00000000  3.72400200E-09       2.00000000
  1 413      88.00000000  4.05655110E-09       2.00000000
  1 415     115.00000000  4.13709778E-09       2.00000000
  1 416     108.00000000  4.05655110E-09       2.00000000
  1 417     104.00000000  3.72400200E-09       2.00000000
  1 418     104.00000000  3.72400200E-09       2.00000000
  1 419     110.00000000  3.72400200E-09       2.00000000
  1 420     102.00000000  3.72400200E-09       2.00000000
  1 421     101.00000000  3.72400200E-09       2.00000000
  1 422     106.00000000  3.72400200E-09       2.00000000
  1 423     106.00000000  3.72400200E-09       2.00000000
  1 424     110.00000000  3.72400200E-09       2.00000000
  1 425     102.00000000  3.72400200E-09       2.00000000
  1 426     109.00000000  3.72400200E-09       2.00000000
  1 427     100.00000000  3.72400200E-09       2.00000000
  1 428      99.00000000  3.72400200E-09       2.00000000
  1 429     106.00000000  3.72400200E-09       2.00000000
  1 430     108.00000000  3.72400200E-09       2.00000000
  1 431     109.00000000  3.72400200E-09       2.00000000
  1 432     108.00000000  3.72400200E-09       2.00000000
  1 433     102.00000000  3.72400200E-09       2.00000000
  1 434     102.00000000  3.72400200E-09       2.00000000
  1 435     106.00000000  3.72400200E-09       2.00000000
  1 436     110.00000000  3.72400200E-09       2.00000000
  1 437     110.00000000  3.72400200E-09       2.00000000
  1 438     100.00000000  3.72400200E-09       2.00000000
  1 439     110.00000000  3.72400200E-09       2.00000000
  1 440     110.00000000  3.72400200E-09       2.00000000
  1 441     109.00000000  3.72400200E-09       2.00000000
  1 442     109.00000000  3.72400200E-09       2.00000000
  1 443     103.00000000  3.72400200E-09       2.00000000
  1 444     122.00000000  3.72400200E-09       2.00000000
  1 445     109.00000000  3.72400200E-09       2.00000000
  1 446     110.00000000  3.72400200E-09       2.00000000
  1 447     110.00000000  3.72400200E-09       2.00000000
  1 448     108.00000000  3.72400200E-09       2.00000000
  1 449     127.00000000  3.72400200E-09       2.00000000
  1 451      79.00000000  3.58363916E-09       2.00000000
  1 452      79.00000000  3.58363916E-09       2.00000000
  1 453      79.00000000  3.58363916E-09       2.00000000
  1 454      86.00000000  3.58363916E-09       2.00000000
  1 455      87.00000000  3.58363916E-09       2.00000000
  1 456      86.00000000  3.58363916E-09       2.00000000
  1 457      88.00000000  3.58363916E-09       2.00000000
  1 458      85.00000000  3.58363916E-09       2.00000000
  1 459      80.00000000  3.58363916E-09       2.00000000
  1 460      88.00000000  3.58363916E-09       2.00000000
  1 461      79.00000000  3.58363916E-09       2.00000000
  1 462      81.00000000  3.58363916E-09       2.00000000
  1 463      83.00000000  3.58363916E-09       2.00000000
  1 464      81.00000000  3.58363916E-09       2.00000000
  1 465      81.00000000  3.58363916E-09       2.00000000
  1 466      84.00000000  3.58363916E-09       2.00000000
  1 467      79.00000000  3.58363916E-09       2.00000000
  1 468      82.00000000  3.58363916E-09       2.00000000
  1 469      84.00000000  3.58363916E-09       2.00000000
  1 470     100.00000000  3.58363916E-09       2.00000000
  1 471      87.00000000  3.58363916E-09       2.00000000
  1 472      89.00000000  3.58363916E-09       2.00000000
  1 473      88.00000000  3.58363916E-09       2.00000000
  1 474      85.00000000  3.58363916E-09       2.00000000
  1 475      85.00000000  3.58363916E-09       2.00000000
  1 476      79.00000000  3.58363916E-09       2.00000000
  1 477      63.00000000  4.08616829E-09       2.00000000
  1 478      81.00000000  3.58363916E-09       2.00000000
  1 479      89.00000000  3.58363916E-09       2.00000000
  1 480      83.00000000  3.58363916E-09       2.00000000
  1 481      88.00000000  3.58363916E-09       2.00000000
  1 482      87.00000000  3.58363916E-09       2.00000000
  1 483      88.00000000  3.58363916E-09       2.00000000
  1 484      88.00000000  3.58363916E-09       2.00000000
  1 485      89.00000000  3.58363916E-09       2.00000000
  1 486      89.00000000  3.58363916E-09       2.00000000
  1 487      86.00000000  3.58363916E-09       2.00000000
  1 488      88.00000000  3.58363916E-09       2.00000000
  1 489      89.00000000  3.58363916E-09       2.00000000
  1 490      87.00000000  3.58363916E-09       2.00000000
  1 492     100.00000000  3.58363916E-09       2.00000000
  1 494      79.00000000  3.58363916E-09       2.00000000
  1 495      92.00000000  3.58363916E-09       2.00000000
  1 496      90.00000000  3.58363916E-09       2.00000000
  1 497      91.00000000  3.58363916E-09       2.00000000
  1 498      93.00000000  3.58363916E-09       2.00000000
  1 499      98.00000000  3.58363916E-09       2.00000000
  1 500      98.00000000  3.58363916E-09       2.00000000
  1 501      95.00000000  3.58363916E-09       2.00000000
  1 502      97.00000000  3.58363916E-09       2.00000000
  1 503     107.00000000  3.72400200E-09       2.00000000
  1 504      87.00000000  3.72400200E-09       2.00000000
  1 505     110.00000000  3.72400200E-09       2.00000000
  1 506     109.00000000  3.72400200E-09       2.00000000
  1 507      88.00000000  3.58363916E-09       2.00000000
  1 508      96.00000000  3.72400200E-09       2.00000000
  1 509      91.00000000  3.58363916E-09       2.00000000
  1 510      90.00000000  3.58363916E-09       2.00000000
  1 511      90.00000000  3.58363916E-09       2.00000000
  1 512      89.00000000  3.58363916E-09       2.00000000
  1 513      89.00000000  3.58363916E-09       2.00000000
  1 514      59.00000000  3.49964790E-09       2.00000000
  1 515      99.00000000  3.58363916E-09       2.00000000
  1 516      99.00000000  3.58363916E-09       2.00000000
  1 517      97.00000000  3.58363916E-09       2.00000000
  1 518     101.00000000  3.58363916E-09       2.00000000
  1 519      63.00000000  3.55499341E-09       2.00000000
  1 520      99.00000000  3.58363916E-09       2.00000000
  1 521      71.00000000  3.55499341E-09       2.00000000
  1 522      99.00000000  3.58363916E-09       2.00000000
  1 523      97.00000000  3.58363916E-09       2.00000000
  1 524      79.00000000  3.55499341E-09       2.00000000
  1 525      96.00000000  3.58363916E-09       2.00000000
  1 526      96.00000000  3.58363916E-09       2.00000000
  1 527     100.00000000  3.58363916E-09       2.00000000
  1 528      99.00000000  3.58363916E-09       2.00000000
  1 529      96.00000000  3.58363916E-09       2.00000000
  1 530     100.00000000  3.58363916E-09       2.00000000
  1 531      78.00000000  3.55499341E-09       2.00000000
  1 532      98.00000000  3.58363916E-09       2.00000000
  1 533      96.00000000  3.58363916E-09       2.00000000