# File generated by Flopy version 3.9.1 on 02/09/2026 at 23:33:23.
BEGIN options
  SAVE_FLOWS
  SAVE_SPECIFIC_DISCHARGE
END options

BEGIN griddata
  icelltype  LAYERED
    INTERNAL  FACTOR  1
      1  0  1  1  1  1  1  1  1  1  1  1  1  1  1  1  1  1  1  1
      1  1  1  1  1  1  1  1  1  1  1  1  1  1  1  1  1  1  1  1
      1  1  1  1  1  1  1  1  1  1  1  1  1  1  1  1  1  1  1  1
      1  0  1  1  1  1  1  1  1  1  0  1  1  1  1  1  1  1  1  1
      1  1  1  1  1  1  1  1  1  1  1  1  1  1  1  1  1  1  1  1
      1  1  1  1  1  1  1  1  1  1  1  1  1  1  1  1  1  1  1  1
      1  1  1  1  1  1  1  1  1  1  1  1  1  1  1  1  1  1  1  1
      1  1  1  1  1  1  1  1  1  1  1  0  1  1  1  1  1  1  1  1
      1  1  1  1  1  1  1  1  1  1  1  1  1  1  0  1  1  1  1  1
      1  1  1  1  1  1  1  1  1  1  1  1  1  1  1  1  1  1  1  1
      1  1  1  1  1  1  1  1  1  1  1  1  1  1  1  1  1  1  1  1
      1  1  1  1  1  1  1  1  1  1  1  1  1  1  1  1  1  1  1  1
      1  1  1  1  1  1  1  1  1  1  1  1  1  1  1  1  1  1  1  1
      1  1  1  1  1  1  1  0  1  1  1  1  1  1  1  1  1  1  1  1
      1  1  1  1  1  1  1  0  1  1  1  1  1  1  1  1  1  1  1  1
      1  1  1  1  1  1  1  1  1  1  1  1  1  1  1  1  1  1  1  1
      1  1  1  1  1  1  1  1  1  1  1  1  1  1  1  1  1  1  1  1
      1  1  1  1  1  1  1  1  1  1  1  1  1  1  1  1  1  1  1  1
      1  1  1  1  1  1  1  1  1  1  1  1  1  1  1  1  1  1  1  1
      1  1  1  1  1  1  1  1  1  1  1  1  1  1  1  1  1  1  1  1
      1  1  1  1  1  1  1  1  1  1  1  1  1  1  1  1  1  1  1  1
      1  1  1  1  1  1  1  1  1  1  1  1  1  1  1  1  1  1  1  1
      1  1  1  1  1  1  1  1  1  1  1  1  1  1  1  1  1  1  1  1
      1  1  1  1  1  1  1  1  1  1  1  1  1  1  1  1  1  1  1  1
      1  1  1  1  1  1  1  1  1  1  1  1  1  1  1  1  1  1  1  1
      1  1  1  1  1  1  1  1  1  1  1  1  1  1  1  1  1  1  1  1
      1  1  1  1  1  1  1  1  1  1  1  1  1  1  1  1  1  1  1  1
      1  1  1  1  1  1  1  1  1  1  1  1  1  1  1  1  1  1  1  1
      1  1  1  1  1  1  1  1  1  1  1  1  1  1  1  1  1  1  1  1
      1  1  1  1  1  1  1  1  1  1  1  1  1  1  1  1  1  1  1  1
      1  1  1  1  1  1  1  1  1  1  1  1  1  1  1  1  1  1  1  1
      1  1  1  1  1  1  1  1  1  0  1  1  1  1  1  1  1  1  1  1
      1  1  1  1  1  1  1  1  1  1  1  1  1  1  1  1  1  1  1  1
      1  1  1  1  1  1  1  1  1  1  1  1  1  1  1  1  1  1  1  1
      1  1  1  1  1  1  1  1  1  1  1  1  1  1  1  1  1  1  1  1
      1  1  1  1  1  1  1  1  1  1  1  1  1  1  1  1  1  1  1  1
      1  1  1  1  1  1  1  1  1  1  1  1  0  1  1  1  1  1  1  1
      1  1  1  1  1  1  1  1  1  0  1  1  1  1  1  1  1  1  1  0
      1  1  0  1  1  1  1  1  1  1  0  1  1  0  1  1  1  1  1  1
      1  1  0  1  0  0  1  1  1  0  1  1  1  0  1  1  0  1  1  1
      1  1  1  1  0  1  0  1  1  1  1  1  1  1  1  1  1  1  1  1
      0  1  1  1  1  1  1  0  1  1  0  1  1  1  1  0  1  1  1  1
      1  1  0  1  1  0  0  1  1  0  1  1  1  1  1  1  1  1  1  1
      0  1  1  1  1  1  1  1  1  1  1  0  1  0  0  1  1  1  1  1
      1  1  1  0  0  1  0  1  1  1  0  1  1  1  1  1  1  1  1  1
      1  1  1  1  1  1  1  1  0  0  1  0  0  1  1  1  0  1  0  1
      1  1  0  1  0  1  1  0  1  1  0  0  0  0  1  1  1  1  1  1
      0  1  1  1  1  1  0  0  0  1  1  1  1  0  1  0  1  1  1  1
      1  0  1  1  0  0  1  1  1  1  1  1  1  1  1  1  1  1  0  0
      1  0  1  0  1  1  0  1  0  1  0  1  1  0  1  1  1  1  1  0
      0  1  1  1  1  0  0  0  0  0  0  1  1  1  1  1  1  0  0  1
      1  0  1  0  0  0  0  0  0  1  1  0  1  0  1  1  1  0  1  1
      0  1  1  1  1  0  1  1  1  1  1  0  1  1  1  1  0  1  1  0
      1  1  1  1  0  1  1  1  0  1  1  1  1  1  1  1  0  0  0  1
      1  1  0  1  1  1  1  1  0  1  1  1  1  1  1  0  1  1  0  1
      0  1  1  0  0  1  1  1  0  1  1  1  1  1  1  0  1  1  0  0
      1  1  0  0  1  0  1  0  1  0  0  1  1  1  1  1  1  1  1  1
      1  1  1  1  1  0  1  1  1  1  1  1  1  1  1  1  0  1  0  1
      1  1  1  1  1  1  1  0  1  0  1  1  0  1  1  1  0  1  0  1
      1  1  1  1  1  1  1  1  0  0  0  0  0  1  0  0  0  1  1  0
      0  1  1  0  1  0  0  1  1  0  1  1  0  0  1  0  1  0  1  0
      1  1  0  1  0  1  1  1  1  1  1  0  0  1  1  1  1  1  0  1
      0  1  1  0  1  1  1  0  1  1  0  1  0  0  0  0  1  0  1  0
      1  0  1  0  1  1  1  1  1  1  1  1  1  0  1  1  1  1  1  1
      1  0  1  1  0  1  0  1  1  0  1  1  1  1  0  0  1  0  1  1
      0  1  1  1  1  0  1  1  0  1  0  1  0  0  1  1  1  1  0  1
      1  1  0  1  1  1  1  1  1  1  1  1  1  1  1  0  1  1  1  1
      1  1  1  1  1  0  1  1  1  1  1  1  0  1  1  1  1  1  0  1
      0  1  1  0  1  0  1  0  1  1  0  1  0  1  0  0  1  0  0  1
      1  0  1  1  0  0  1  1  0  1  1  1  0  1  0  0  1  0  0  1
      1  0  1  1  1  1  1  1  1  0  1  0  1  1  1  1  1  0  0  0
      1  1  1  1  1  1  0  0  1  1  1  1  0  1  0  1  1  1  1  1
      1  0  1  0  1  1  0  1  1  1  1  1  1  1  1  1  1  1  1  1
      1  1  1  1  1  1  1  1  1  1  1  1  1  1  1  1  1  1  1  1
      1  1  1  1  1  1  1  1  1  1  1  1  1  1  1  1  1  1  1  1
      1  1  1  1  1  1  1  1  1  1  1  1  1  1  1  1  1  1  1  1
      1  1  1  1  1  1  1  1  1  1  1  1  1  1  1  1  1  1  1  1
      1  1  1  1  1  1  1  1  1  1  1  1  1  1  1  1  1  1  1  1
      1  1  1  1  1  1  1  1  1  1  1  1  1  1  1  1  1  1  1  1
      1  1  1  1  1  1  1  1  1  1  1  1  1  1  1  1  1  1  1  1
      1  1  1  1  1  1  1  1  1  1  1  1  1  1  1  1  1  1  1  1
      1  0  0  1  1  1  1  0  1  1  1  1  1  1  1  1  1  1  1  1
      1  1  1  1  1  1  1  1  1  1  1  1  1  1  1  1  1  1  1  1
      1  1  1  1  1  1  1  1  1  1  1  1  1  1  1  1  1  1  0  1
      0  1  0  0  1  1  1  1  1  1  1  1  1  0  1  1  1  0  1  1
      1  0  1  1  1  1  1  0  0  0  1  1  1  0  0  1  1  0  1  0
      1  1  1  1  1  1  1  0  1  1  1  1  1  1  1  1  1  1  1  0
      1  1  1  1  0  1  1  1  1  1  1  1  1  1  1  1  1  1  1  0
      1  1  0  1  1  1  1  1  0  1  0  1  0  0  1  1  1  1  1  1
      1  1  1  1  1  1  0  0  1  1  0  1  0  1  1  0  1  0  1  1
      1  1  0  0  1  1  0  1  1  0  1  1  1  1  1  1  1  0  1  1
      1  1  1  1  1  1  0  1  1  1  1  1  1  1  1  1  1  1  1  0
      1  0  1  1  1  1  1  0  1  1  1  1  0  1  1  1  0  1  0  0
      1  1  1  1  1  1  1  1  1  1  0  1  1  0  1  1  0  1  1  1
      1  1  1  1  1  0  0  1  1  1  1  0  1  1  1  1  1  1  1  1
      1  0  1  1  1  1  1  1  1  1  0  1  0  1  1  1  1  1  1  0
      1  1  1  1  1  1  0  1  1  1  1  1  1  1  1  1  1  0  1  1
      1  1  0  1  0  1  0  1  1  1  1  0  1  0  1  1  1  1  1  1
      1  1  1  0  1  1  1  1  1  1  1  1  1  1  0  0  1  1  1  1
      1  1  1  1  1  1  1  0  1  1  1  1  1  1  1  1  1  1  0  1
      1  0  0  1  0  1  1  0  1  1  1  1  1  0  1  1  1  0  0  1
      0  1  1  0  1  0  1  1  0  1  0  0  1  0  0  1  1  0  1  1
      0  1  1  1  1  1  1  1  1  0  1  1  1  1  1  1  0  1  1  1
      1  1  1  1  0  1  0  1  1  1  1  1  0  0  1  1  0  1  1  1
      1  0  0  0  1  1  1  1  1  1  1  1  1  1  1  1  1  1  1  1
      1  1  1  1  1  0  1  0  1  0  1  1  1  1  1  1  0  1  1  0
      0  1  1  0  1  0  1  0  1  0  1  1  1  1  1  0  0  1  1  1
      1  1  1  0  0  1  0  1  1  0  1  0  0  1  0  0  1  1  1  1
      1  1  1  0  0  0  1  0  1  1  1  1  1  1  1  1  1  0  0  1
      0  1  1  1  1  1  0  1  0  1  1  1  0  0  1  1  0  1  1  1
      0  1  0  1  0  1  1  1  1  0  1  1  0  1  1  1  1  0  0  1
      1  0  0  0  1  1  0  1  1  1  0  0  1  1  1  1  0  0  0  1
      1  0  0  1  1  1  1  1  0  1  0  0  1  1  1  1  1  1  1  1
      1  1  1  1  0  0  1  1  1  0  1  0  0  0  1  1  1  0  1  1
      1  1  1  1  1  1  1  0  0  0  1  1  0  1  0  1  1  0  1  1
      1  1  0  0  0  1  0  0  0  0  1  1  1  0  1  1  1  1  0  1
      0  0  1  1  1  1  0  0  1  1  0  1  1  1  1  0  1  1  1  1
      0  1  0  1  1  1  1  1  1  1  0  1  0  1  0  1  0  1  0  0
      1  1  1  1  0  0  1  1  0  0  1  1  1  0  1  1  1  0  1  0
      1  1  1  1  1  1  1  1  1  1  1  1  1  1  1  1  1  1  1  1
      1  1  1  1  1  1  1  1  0  1  0  1  1  1  1  1  0  1  1  0
      1  1  1  1  1  0  1  1  1  1  0  1  1  1  1  0  0  1  1  1
      1  0  1  1  0  0  1  1  1  1  1  1  1  1  1  1  1  1  1  1
      1  1  1  1  1  0  1  1  1  1  1  1  1  1  1  1  1  1  0  1
      1  1  1  1  1  1  1  1  1  1  1  1  0  1  0  1  1  1  1  1
      1  1  1  1  1  1  1  1  1  1  1  1  1  0  1  1  1  1  1  1
      1  1  1  1  0  1  1  1  1  1  1  1  1  0  1  1  1  1  1  1
      1  0  0  1  1  1  1  1  0  0  1  0  1  1  1  0  0  1  1  0
      1  0  0  1  0  1  1  1  0  0  1  0  0  1  0  0  1  1  1  1
      0  0  0  1  1  1  1  1  0  1  1  0  0  0  1  1  1  1  1  1
      0  1  0  1  0  1  0  1  1  0  0  1  1  1  1  0  0  1  1  0
      0  1  0  1  0  0  1  1  1  0  1  0  1  1  1  1  0  0  1  0
      1  1  0  0  1  1  0  0  0  0  0  1  0  1  1  0  0  1  1  0
      1  1  0  0  1  0  1  1  1  1  0  0  1  0  1  1  1  1  1  0
      1  1  1  1  1  1  1  1  0  1  1  1  0  1  1  0  1  1  0  1
      0  0  1  1  1  1  1  1  1  0  1  1  1  0  1  1  1  0  1  1
      0  0  1  1  1  1  1  1  1  1  1  1  0  1  1  0  1  1  1  1
      1  1  1  0  1  1  1  1  0  0  1  0  1  1  1  1  1  1  1  1
      1  1  1  0  1  1  0  1  1  1  1  1  0  1  1  1  1  1  1  0
      1  1  1  1  1  1  0  0  1  0  1  1  1  1  1  0  0  1  1  1
      1  1  0  1  1  1  1  1  0  1  1  1  1  0  1  1  1  1  0  0
      1  0  0  0  1  0  1  1  0  0  1  0  0  0  0  1  1  1  1  1
      0  1  0  1  0  1  1  1  1  0  1  1  0  1  1  0  1  0  1  1
      1  0  1  0  1  1  1  1  1  1  1  0  1  1  0  1  0  1  1  1
      1  1  1  1  1  1  1  0  1  0  1  1  1  1  1  1  1  1  0  1
      1  1  1  1  1  0  0  1  1  1  1  1  0  0  1  0  1  1  0  1
      1  1  1  0  0  1  1  1  1  1  1  1  0  1  1  1  1  1  0  1
      1  1  1  1  1  1  1  1  1  0  0  1  1  1  0  1  1  0  1  0
      1  1  1  1  1  1  0  1  0  1  0  1  0  1  0  1  1  0  1  0
      1  1  1  1  0  1  1  1  0  1  1  1  1  0  1  0  1  0  1  0
      1  0  1  0  1  0  1  0  1  0  1  0  1  0  1  1  0  1  1  1
      1  1  1  1  1  1  1  1  1  1  1  1  1  1  1  1  1  1  1  1
      1  1  0  1  1  1  1  1  1  1  1  1  1  1  1  1  1  1  1  1
      0  1  1  1  1  1  1  1  1  1  1  1  1  1  1  1  1  1  1  1
      0  1  0  1  1  1  1  0  0  1  0  1  1  0  1  0  1  0  1  1
      1  1  1  0  1  1  1  0  1  1  1  0  1  1  1  1  1  0  1  1
      0  1  0  1  1  1  0  1  0  1  1  1  1  0  1  0  1  0  1  1
      1  0  1  1  1  1  1  1  1  1  1  1  1  1  1  1  0  1  1  1
      0  1  1  0  1  1  1  1  1  1  1  1  0  1  1  1  0  1  1  1
      1  0  1  0  1  0  1  1  1  1  1  1  1  1  1  1  1  1  1  1
      1  1  1  1  1  1  1  1  1  1  1  1  1  1  1  1  1  1  1  1
      1  1  1  1  1  1  1  1  1  1  1  1  1  1  1  1  1  1  1  1
      1  1  1  1  1  1  1  1  1  1  1  1  1  1  1  1  1  1  1  1
      1  1  1  1  1  1  1  1  1  1  1  1  1  1  1  1  1  1  1  1
      1  1  1  1  1  1  1  1  1  1  1  1  1  1  1  0  1  1  1  1
      1  1  1  1  1  1  1  1  0  1  1  1  1  1  1  1  1  1  1  1
      1  1  1  1  0  1  1  1  1  1  1  1  0  1  1  1  1  1  1  1
      0  1  1  0  1  1  1  1  1  1  1  0  1  1  0  1  1  0  1  0
      1  0  1  1  0  1  0  1  0  1  0  1  1  1  0  1  0  1  0  1
      0  1  0  1  0  1  0  1  1  0  1  0  1  0  1  1  1  0  1  0
      1  1  1  0  1  0  1  1  0  1  1  1  0  1  0  1  1  1  1  1
      1  1  0  1  1  0  1  1  0  1  0  1  0  1  1  1  1  0  1  0
      1  0  1  1  1  1  1  1  1  1  1  0  1  0  1  0  1  0  1  0
      1  1  0  1  1  0  1  0  1  1  1  1  1  1  1  1  1  1  1  1
      1  1  1  1  1  1  1  1  1  1  1  1  1  1  1  1  0  1  0  1
      1  1  1  1  1  1  1  1  1  1  0  1  1  1  0  1  1  1  1  0
      1  0  1  1  0  1  1  0  1  1  0  1  0  1  1  1  1  1  1  0
      1  0  1  0  1  0  1  0  1  0  1  1  0  1  0  1  0  1  0  1
      0  1  0  1  1  1  0  1  1  0  1  1  1  0  1  1  1  1  0  1
      0  1  0  1  1  1  1  1  1  1  1  1  1  1  1  1  1  1  1  1
      1  1  1  1  1  1  1  1  1  1  1  1  1  1  1  1  1  1  1  1
      1  1  1  1  1  1  1  1  1  1  1  1  1  1  1  1  1  1  1  1
      1  1  1  1  1  1  1  1  1  1  1  1  1  1  1  1  1  1  1  1
      1  1  1  1  1  1  1  1  1  1  1  1  1  1  1  1  1  1  1  1
      1  1  1  1  1  1  1  1  1  1  1  1  1  1  1  1  1  1  1  1
      1  1  1  1  1  1  1  1  1  1  1  1  1  1  1  1  1  1  1  1
      1  1  1  1  1  1  1  1  1  1  1  1  1  1  1  0  1  1  1  1
      0  1  0  1  0  1  1  1  1  1  1  1  1  1  0  1  0  1  0  1
      1  0  1  1  0  1  0  1  0  1  1  0  1  1  1  0  1  1  1  1
      1  1  0  1  0  1  1  1  0  1  0  1  1  0  1  1  1  1  0  0
      1  1  1  1  0  1  0  1  0  1  0  1  1  1  1  1  1  1  0  0
      1  1  1  0  1  1  0  1  1  1  1  1  1  1  1  1  0  1  0  1
      0  1  1  0  1  1  1  0  1  1  1  1  1  1  1  1  0  1  1  0
      1  0  1  1  0  1  0  1  0  1  0  1  0  1  0  1  1  0  1  0
      1  0  1  1  1  0  1  1  0  1  1  1  0  1  1  1  1  1  1  1
      1  1  1  1  1  1  1  1  1  1  0  1  0  1  1  1  1  1  1  1
      1  1  1  1  0  1  1  1  1  1  1  1  1  0  1  0  1  1  1  1
      1  1  1  1  1  1  0  1  1  0  1  1  0  1  0  1  1  0  1  0
      1  0  1  1  0  1  1  0  1  1  1  1  1  1  0  1  1  1  1  0
      1  1  0  1  1  1  1  1  1  1  1  1  1  1  1  1  1  1  1  1
      1  1  1  1  1  1  1  1  1  1  1  1  1  1  1  1  1  1  1  1
      1  1  1  1  1  1  1  1  1  1  1  1  1  1  1  1  1  1  1  1
      1  1  1  1  1  1  1  1  1  1  1  1  1  1  1  1  1  1  1  1
      1  1  1  1  1  1  1  1  1  1  1  1  1  1  1  1  1  1  1  1
      1  1  1  1  1  1  1  1  1  1  1  1  1  1  1  1  1  1  1  0
      1  1  1  1  0  1  0  1  0  1  0  1  1  1  1  0  1  1  1  0
      1  1  0  1  1  0  1  1  0  1  1  0  1  1  1  1  1  1  1  0
      1  0  1  1  0  1  0  1  1  0  1  1  0  1  1  0  1  0  1  1
      0  1  0  1  1  0  1  0  1  1  1  1  0  1  1  0  1  1  1  1
      1  1  1  1  1  1  1  0  1  0  1  1  0  1  0  1  0  1  0  1
      1  1  0  1  1  1  1  0  1  1  1  1  0  1  0  1  0  1  1  1
      1  1  1  1  1  1  1  1  1  1  1  1  1  1  1  1  1  1  0  1
      1  1  1  1  1  1  1  1  1  1  1  1  1  1  1  1  1  0  1  1
      0  1  0  1  1  1  1  1  1  1  1  1  1  0  1  1  1  1  1  1
      1  1  1  1  1  1  1  1  1  1  1  1  1  1  1  1  1  1  1  1
      1  1  1  1  1  1  1  1  1  1  1  1  1  1  1  1  1  1  1  1
      1  1  1  1  1  1  1  1  1  1  1  1  1  1  1  1  1  1  1  1
      1  1  1  1  1  1  1  1  1  1  1  1  1  1  1  1  1  1  1  1
      0  1  1  1  1  1  1  0  1  1  1  1  1  1  1  0  1  0  1  0
      1  1  0  1  1  1  1  1  1  1  1  1  1  1  0  1  1  0  1  0
      1  1  1  1  1  1  1  1  1  0  1  1  1  1  1  1  1  1  1  1
      1  1  1  1  1  1  1  1  1  1  1  1  1  1  1  1  1  1  1  1
      1  1  1  1  1  1  1  1  1  1  1  1  1  1  1  0  1  1  1  1
      1  1  1  1  1  1  1  1  1  1  1  1  1  1  1  1  1  1  1  1
      1  1  1  1  1  1  1  1  1  1  1  1  1  1  0  1  1  1  1  1
      1  1  0  1  1  1  1  1  1  1  1  1  1  1  0  1  1  1  0  1
      1  1  1  1  1  1  1  1  1  1  0  1  1  1  1  1  1  1  1  1
      1  1  1  1  1  1  1  1  1  1  1  1  1  1  1  1  1  1  1  1
      1  1  0  1  1  1  1  1  1  1  1  1  1  1  1  1  1  1  1  1
      1  1  1  1  1  1  1  1  1  1  1  0  1  1  1  1  1  1  1  1
      1  1  1  1  1  1  1  1  1  1  1  1  1  1  1  1  1  1  1  1
      1  1  1  1  1  1  1  1  1  1  1  1  1  1  1  1  1  1  1  1
      1  1  1  1  1  1  1  1  1  1  1  1  1  1  1  1  1  1  1  1
      1  1  1  1  1  1  1  1  1  1  1  1  1  1  1  1  1  1  1  1
      1  1  1  1  1  1  1  1  1  1  1  1  1  1  1  1  1  1  1  1
      1  1  1  1  1  1  1  1  1  1  1  1  1  1  1  1  1  1  1  1
      1  1  1  1  1  1  1  1  1  1  1  1  1  1  1  1  1  1  1  1
      1  1  1  1  1  1  1  1  1  1  1  1  1  1  1  1  1  1  1  1
      1  1  1  1  1  1  0  1  1  1  1  1  1  1  1  1  1  1  1  1
      1  1  1  1  1  1  1  1  1  1  1  1  1  1  1  1  1  1  1  1
      1  1  1  1  1  1  1  1  1  1  1  1  1  1  1  1  1  1  1  1
      1  1  1  1  1  1  1  1  1  1  1  1  1  1  1  1  1  1  1  1
      1  1  1  1  1  1  1  1  1  1  1  1  1  1  1  1  1  1  1  1
      1  1  1  1  1  1  1  1  1  1  1  1  1  1  1  1  1  1  1  1
      1  1  1  1  1  1  1  1  1  1  1  1  1  1  1  1  1  1  1  1
      1  1  1  1  1  1  1  1  1  1  1  1  1  1  1  1  1  1  1  1
      1  1  1  1  1  1  1  1  1  1  1  1  1  1  1  1  1  1  1  1
      1  1  1  1  1  1  1  1  1  1  1  1  1  1  1  1  1  1  1  1
      1  1  1  1  1  1  1  0  1  1  1  1  1  1  1  1  1  1  1  1
      1  1  1  1  1  1  1  1  1  1  1  1  1  1  1  1  1  1  1  1
      1  1  1  1  1  1  1  1  1  1  1  1  1  1  1  1  1  1  1  1
      1  1  1  1  1  1  1  1  1  1  1  1  1  1  1  1  1  1  1  1
      1  1  1  1  1  1  1  1  1  1  1  1  1  1  1  1  1  1  1  1
      1  1  1  1  1  1  1  1  1  1  1  1  1  1  1  1  1  1  1  1
      1  1  1  1  1  1  1  1  1  1  1  1  1  1  1  1  1  1  1  1
      1  1  1  1  1  1  1  1  1  1  1  1  1  1  1  1  1  1  1  1
      1  1  1  1  1  1  1  1  1  1  1  1  1  1  1  1  1  1  1  1
      1  1  1  1  1  1  1  1  1  1  1  1  1  1  1  1  1  1  1  1
      1  1  1  1  1  1  1  1  1  1  1  1  1  1  1  1  1  1  1  1
      1  1  1  1  1  1  1  1  1  1  1  1  1  1  1  1  1  1  1  1
      1  1  1  1  1  1  1  1  1  1  1  1  1  1  1  1  1  1  1  1
      1  1  1  1  1  1  1  1  1  1  1  1  1  1  1  1  1  1  1  1
      1  1  1  1  1  1  1  1  1  1  1  1  1  1  1  1  1  1  1  1
      1  1  1  1  1  1  1  1  1  1  1  1  1  1  1  1  1  1  1  1
      1  1  1  1  1  1  1  1  1  1  1  1  1  1  1  1  1  1  1  1
      1  1  1  1  1  1  1  1  1  1  1  1  1  1  1  1  1  1  1  1
      1  1  1  1  1  1  1  1  1  1  1  1  1  1  1  1  1  1  1  1
      1  1  1  1  1  1  1  1  1  1  1  1  1  1  1  1  1  1  1  1
      1  1  1  1  1  1  1  1  1  1  1  1  1  1  1  1  1  1  1  1
      1  1  1  1  1  1  1  1  1  1  1  1  1  1  1  1  1  1  1  1
      1  1  1  1  1  1  1  1  1  1  1  1  1  1  1  1  1  1  1  1
      1  1  1  1  1  1  1  1  1  1  1  1  1  1  1  1  1  1  1  1
      1  1  1  1  1  1  1  1  1  1  1  1  1  1  1  1  1  1  1  1
      1  1  1  1  1  1  1  1  1  1  1  1  1  1  1  1  1  1  1  1
      1  1  1  1  1  1  1  1  1  1  1  1  1  1  1  1  1  1  1  1
      1  1  1  1  1  1  1  1  1  1  1  1  1  1  1  1  1  1  1  1
      1  1  1  1  1  1  1  1  1  1  1  1  1  1  1  1  1  1  1  1
      1  1  1  1  1  1  1  1  1  1  1  1  1  1  1  1  1  1  1  1
      1  1  1  1  1  1  1  1  1  1  1  1  1  1  1  1  1  1  1  1
      1  1  1  1  1  1  1  1  1  1  1  1  1  1  1  1  1  1  1  1
      1  1  1  1  1  1  1  1  1  1  1  1  1  1  1  1  1  1  1  1
      1  1  1  1  1  1  1  1  1  1  1  1  1  1  1  1  1  1  1  1
      1  1  1  1  1  1  1  1  1  1  1  1  1  1  1  1  1  1  1  1
      1  1  1  1  1  1  1  1  1  1  1  1  1  1  1  1  1  1  1  1
      1  1  1  1  1  1  1  1  1  1  1  1  1  1  1  1  1  1  1  1
      1  1  1  1  1  1  1  1  1  1  1  1  1  1  1  1  1  1  1  1
      1  1  1  1  1  1  1  1  1  1  1  1  1  1  1  1  1  1  1  1
      1  1  1  1  1  1  1  1  1  1  1  1  1  1  1  1  1  1  1  1
      1  1  1  1  0  1  1  0  1  1  1  1  1  1  1  1  1  1  1  1
      1  1  1  1  1  1  1  1  0  1  1  1  1  1  1  1  1  1  1  1
      1  1  1  1  1  1  1  1  1  1  1  1  1  1  1  1  1  1  1  1
      1  1  1  1  1  1  1  1  1  1  1  1  1  1  1  1  1  1  1  1
      1  1  1  1  1  1  1  1  1  1  1  1  1  1  1  1  1  1  1  1
      1  1  1  1  1  1  1  1  1  1  1  1  1  1  1  1  1  1  1  1
      1  1  1  1  1  1  1  1  1  1  1  1  1  1  1  1  1  1  1  1
      1  1  1  1  1  1  1  1  1  1  1  1  1  1  1  1  1  1  1  1
      1  1  1  1  1  1  1  1  1  1  1  1  1  1  1  1  1  1  1  1
      1  1  1  1  1  1  1  1  1  1  1  1  1  1  1  1  1  1  1  1
      1  1  1  1  1  1  1  1  1  1  1  1  1  1  1  1  1  1  1  1
      1  0  1  1  1  1  1  1  1  1  1  1  1  1  1  1  1  1  1  1
      1  1  1  1  1  1  1  1  1  1  1  1  1  1  1  1  1  1  1  1
      1  1  1  1  1  1  1  1  1  1  1  1  1  1  1  1  1  1  1  1
      1  1  1  1  1  1  1  1  1  1  1  1  1  1  1  0  1  0  1  1
      1  1  1  1  1  1  1  1  1  1  1  1  1  1  1  1  1  1  1  1
      1  1  1  1  1  1  1  1  1  1  1  1  1  1  1  1  1  1  1  1
      1  1  1  1  1  1  1  1  1  1  1  1  1  1  1  1  1  1  1  1
      1  1  1  1  1  1  1  1  1  1  1  1  1  1  1  1  1  1  1  1
      1  1  1  1  1  1  1  1  1  1  1  1  1  1  1  1  1  1  1  1
      1  1  1  1  1  1  1  1  1  1  1  0  1  1  1  1  1  1  0  1
      1  1  1  1  1  1  1  1  1  1  1  1  1  1  1  1  1  1  1  1
      1  1  1  1  1  1  1  1  1  1  1  1  1  1  1  1  1  1  1  1
      1  1  1  1  1  1  1  1  1  1  1  1  1  1  1  1  1  1  1  1
      1  1  1  1  1  1  1  1  1  1  1  1  1  1  1  1  1  1  1  1
      1  1  1  1  1  1  1  1  1  1  1  1  1  1  1  1  1  1  1  1
      1  1  1  1  1  1  1  1  1  1  1  1  1  1  1  1  1  1  1  1
      1  1  1  1  1  1  1  1  1  1  1  1  1  1  1  1  1  1  1  1
      1  1  1  1  1  1  1  1  1  1  1  1  1  1  1  0  0  1  1  1
      1  1  1  1  1  1  1  1  1  1  1  1  1  1  1  1  1  1  1  1
      1  1  1  1  1  1  1  1  1  1  1  1  1  1  1  1  1  1  1  1
      1  1  1  1  1  1  1  1  1  1  1  1  1  1  1  1  1  1  1  1
      1  1  1  1  1  1  1  1  1  1  1  1  1  1  1  1  0  1  1  1
      1  1  1  1  1  1  1  1  1  1  1  1  1  1  1  1  1  1  1  1
      1  1  1  1  1  1  1  1  1  1  1  1  1  1  1  1  1  1  1  1
      1  1  1  1  1  1  1  1  1  1  1  1  1  1  1  1  1  1  1  1
      1  1  1  1  1  1  1  1  1  1  1  1  1  1  1  1  1  1  1  1
      1  1  1  1  1  1  1  1  1  1  1  1  1  1  1  1  1  1  1  1
      1  1  0  1  1  1  1  1  1  1  1  1  1  1  1  1  1  1  1  1
      1  1  1  1  1  1  1  1  1  1  1  1  1  1  1  1  1  1  1  1
      1  1  1  1  1  1  1  1  1  1  1  1  1  1  1  1  1  1  1  1
      1  1  1  1  1  1  1  1  1  1  1  1  1  1  1  1  1  1  1  1
      1  1  1  1  1  1  1  1  1  1  1  1  1  1  1  1  1  1  1  1
      1  1  1  1  1  1  1  1  1  1  0  1  0  1  1  0  1  1  1  1
      0  1  1  1  0  1  1  0  1  0  1  1  1  1  1  0  1  0  1  1
      1  1  1  1  1  1  1  1  1  1  1  1  1  1  1  1  1  1  1  1
      1  1  1  0  1  1  1  1  1  1  1  1  1  1  1  1  1  1  1  0
      1  1  1  1  1  1  1  1  1  1  1  0  1  0  1  1  1  1  1  1
      1  1  1  1  0  1  1  1  1  1  1  1  1  1  1  1  1  1  1  1
      1  1  1  1  0  1  1  1  1  1  1  1  1  1  1  1  1  1  1  1
      1  1  1  0  0  1  0  1  1  1  1  1  1  0  0  1  1  1  1  1
      1  1  1  1  1  0  1  1  0  1  1  1  1  1  1  1  1  1  1  1
      1  1  1  1  0  1  1  1  1  1  1  1  1  1  1  1  1  1  1  1
      1  1  0  0  1  1  1  1  1  1  1  1  1  1  1  1  1  1  1  1
      1  1  0  0  1  1  1  1  1  1  0  0  1  1  1  1  0  0  0  0
      0  0  1  1  1  1  1  1  1  1  1  0  0  0  0  1  1  1  1  0
      0  1  1  0  0  0  0  0  0  0  0  1  1  1  1  0  0  1  1  1
      0  1  0  0  0  1  0  1  0  1  1  0  1  1  1  0  1  0  0  1
      0  1  0  0  0  0  0  0  0  0  0  0  0  0  0  0  0  0  0  0
      1  1  1  1  1  1  1  1  1  1  1  1  0  0  1  1  1  1  0  0
      1  1  1  1  1  1  1  1  1  1  1  1  1  1  1  1  1  0  0  0
      0  0  0  1  0  1  0  0  0  0  0  0  0  0  0  0  0  0  0  0
      0  0  0  0  0  0  0  0  0  0  0  0  0  1  0  1  1  1  1  1
      1  1  1  1  1  1  1  1  1  0  1  0  1  1  1  0  1  1  0  1
      0  1  1  1  1  1  0  1  0  0  0  0  0  0  1  0  1  0  1  1
      1  0  1  1  0  0  1  1  1  0  1  0  1  1  0  1  1  1  0  1
      0  0  1  0  1  1  0  1  1  0  1  1  1  1  1  0  1  1  0  1
      0  1  1  1  0  1  1  1  1  0  1  1  1  0  1  0  1  1  1  0
      0  1  0  1  1  0  1  0  1  1  1  0  1  1  0  1  1  0  1  0
      0  0  0  1  0  1  0  1  1  1  1  0  1  0  0  0  1  1  0  1
      1  1  1  0  1  1  1  0  1  1  0  1  1  0  1  1  0  1  0  1
      0  1  1  0  0  1  0  1  0  1  1  1  0  1  0  1  1  1  0  1
      1  0  1  1  0  1  0  0  1  1  1  1  0  1  0  1  1  1  1  1
      0  1  1  0  0  1  1  1  1  1  1  1  1  1  1  1  1  1  1  1
      1  1  1  1  1  1  1  1  1  1  1  1  1  1  1  1  1  1  1  1
      1  1  1  1  1  1  1  1  1  1  1  1  1  1  1  1  1  1  1  1
      1  1  1  1  1  1  1  1  1  1  1  1  1  1  1  1  1  1  0  1
      0  0  0  1  1  0  1  1  1  1  1  1  1  1  1  0  0  1  1  1
      1  1  1  1  1  1  1  1  1  0  0  0  0  1  0  1  1  1  1  1
      1  1  1  1  1  0  1  1  1  0  1  0  1  1  1  0  1  0  1  1
      0  1  1  0  0  0  0  0  0  1  0  1  0  1  1  1  0  1  1  0
      1  1  0  1  1  0  1  1  0  1  0  1  1  0  1  1  1  0  1  0
      1  1  1  0  1  0  1  1  0  1  1  1  0  1  0  1  1  0  1  1
      0  1  1  0  0  0  0  1  0  1  1  0  1  0  1  1  1  0  1  0
      0  1  1  0  0  1  1  1  1  1  1  0  1  1  0  1  1  0  1  1
      1  0  1  0  1  1  1  0  1  1  0  1  1  0  1  1  0  1  1  0
      1  0  1  1  1  0  1  0  1  1  1  0  1  0  0  0  0  0  0  1
      1  1  1  1  1  1  1  1  1  1  1  1  1  1  1  1  1  1  1  1
      1  1  1  1  1  1  1  1  1  1  1  1  1  1  1  1  1  1  1  1
      1  0  0  0  0  0  0  1  1  1  1  0  1  1  0  1  1  1  0  1
      1  0  1  0  1  1  0  1  1  0  1  1  0  1  1  1  0  1  0  1
      1  1  0  1  0  1  1  1  0  1  0  1  1  0  1  1  1  0  1  1
      0  1  1  0  1  1  0  1  1  0  1  1  1  1  1  1  1  1  1  1
      1  1  1  1  1  1  1  1  1  1  1  1  1  1  1  0  1  0  0  0
      0  0  1  1  0  1  0  0  0  0  1  1  0  0  1  0  1  0  1  0
      1  1  1  1  0  0  0  0  0  0  0  1  0  1  0  0  0  0  0  0
      0  0  0  0  0  0  0  0  1  0  0  0  0  0  0  0  0  0  0  0
      0  0  0  0  1  1  1  1  1  1  1  1  1  1  1  1  1  1  1  1
      1  1  1  1  1  1  1  1  1  1  1  1  1  1  1  1  1  1  1  1
      1  0  0  1  1  0  0  1  1  1  1  1  1  1  1  1  1  0  0  0
      0  0  0  0  0  0  0  0  0  1  1  0  0  0  0  0  0  0  0  0
      0  0  1  0  0  0  0  0  0  0  1  1  0  0  0  0  0  1  0  0
      1  0  0  0  0  0  0  0  0  0  0  0  0  0  0  0  1  1  1  1
      1  1  1  1  1  1  1  1  1  1  1  1  0  0  1  1  1  1  1  1
      0  0  0  1  0  0  0  1  1  1  1  1  1  0  1  0  0  0  0  0
      0  0  0  0  1  1  1  1  0  0  0  1  0  1  0  0  0  0  1  0
      0  0  0  0  0  0  0  0  0  0  0  0  0  0  0  1  1  0  0  1
      1  1  1  1  1  1  1  1  1  1  1  1  1  1  1  1  1  1  0  0
      0  0  1  1  0  1  0  0  0  0  0  0  0  0  1  1  1  1  1  1
      0  0  0  1  0  0  0  1  0  0  1  1  1  1  1  1  1  1  1  1
      0  0  1  1  0  0  0  0  1  1  0  0  1  1  1  1  1  1  1  1
      1  1  0  0  0  0  0  0  0  0  0  0  0  0  0  0  0  0  0  0
      0  1  0  0  0  0  0  0  0  0  0  0  0  0  0  0  0  0  0  1
      1  1  1  1  1  1  1  1  1  1  1  1  1  0  0  0  0  0  0  0
      1  1  1  1  1  1  1  1  1  1  1  1  1  1  1  0  0  0  0  1
      1  1  1  1  1  1  0  1  0  0  1  1  0  0  0  1  0  1  1  1
      1  1  1  1  0  1  1  0  0  1  1  0  0  1  1  0  1  0  0  0
      1  1  1  1  1  1  1  1  1  1  1  0  0  1  1  1  1  0  0  0
      1  0  0  0  0  0  1  0  1  0  0  0  0  1  1  0  0  1  1  1
      1  0  0  0  0  0  0  0  0  0  0  0  0  0  0  0  0  0  0  0
      1  0  0  1  1  0  1  0  0  0  0  1  1  0  0  1  1  1  1  1
      1  1  1  0  0  0  0  0  0  0  0  0  0  0  0  0  0  0  0  1
      1  0  0  0  0  0  0  0  0  0  1  1  1  1  1  1  1  1  1  0
      0  0  0  0  0  1  1  1  1  1  1  0  0  0  0  0  0  1  1  1
      1  1  1  0  0  0  0  1  1  0  0  1  1  1  1  0  0  0  0  0
      0  0  0  0  0  1  1  1  1  0  0  0  0  1  1  1  1  1  1  1
      1  0  0  0  0  0  0  0  0  0  0  0  0  0  0  0  0  0  0  0
      0  0  0  0  0  0  0  0  0  1  1  0  0  0  0  1  1  1  1  0
      0  0  0  0  0  0  0  0  0  0  0  0  0  0  0  0  0  0  0  1
      1  1  1  1  1  1  1  1  1  0  0  0  0  1  1  1  1  1  1  1
      1  1  1  1  1  1  1  1  1  0  0  1  1  1  1  1  1  1  1  1
      1  0  0  0  0  0  1  0  0  0  1  1  1  0  0  1  1  0  0  1
      1  0  0  0  0  1  1  1  1  0  1  1  1  1  1  1  1  1  1  1
      1  1  1  0  0  0  0  0  0  0  0  1  1  1  1  1  1  1  1  0
      0  1  1  1  1  1  1  1  1  1  0  0  0  0  0  1  0  0  0  0
      0  0  0  0  0  0  0  0  1  1  1  1  1  1  1  1  0  0  1  1
      0  0  0  0  1  1  1  1  0  0  0  0  0  0  1  1  1  1  1  1
      1  1  1  1  0  0  1  1  1  1  1  1  0  0  1  1  1  1  1  1
      1  1  0  0  1  1  0  0  0  0  1  1  1  1  1  1  0  0  1  1
      1  1  0  0  0  0  0  0  1  1  1  1  0  0  0  0  0  0  1  1
      0  0  0  0  1  1  0  0  0  0  0  0  1  1  1  1  1  1  0  0
      0  0  0  1  0  0  0  0  0  0  0  0  0  0  0  0  0  0  0  1
      1  1  1  1  1  0  0  0  0  1  1  1  1  1  1  1  1  1  1  1
      1  1  1  1  1  1  1  1  0  0  0  1  1  1  0  1  0  1  1  1
      1  1  1  1  1  1  1  0  1  0  0  0  0  0  0  0  0  1  0  1
      1  0  0  0  0  0  0  0  0  1  1  0  0  0  0  1  1  1  1  0
      0  0  0  0  0  0  0  1  1  1  1  1  1  1  1  0  0  0  1  1
      1  0  0  0  0  0  0  1  1  0  0  0  0  1  1  1  1  1  1  0
      0  0  0  1  1  1  1  0  0  1  1  1  1  1  1  1  1  1  1  0
      0  0  0  1  1  1  1  1  1  1  1  1  1  0  1  1  1  1  1  1
      1  1  1  1  1  1  1  1  1  1  1  1  1  1  0  0  1  1  1  1
      1  1  1  1  0  0  1  1  1  1  1  1  1  1  1  1  0  0  0  0
      1  1  0  0  0  0  1  1  1  1  1  1  1  1  1  1  0  0  0  0
      1  1  1  1  1  1  1  1  1  1  1  1  1  1  0  0  1  1  1  1
      1  1  1  1  0  0  1  1  1  1  1  1  1  1  1  1  1  1  0  0
      0  0  1  1  1  1  1  1  1  1  1  1  1  1  1  1  1  1  1  1
      1  1  1  1  1  1  1  1  1  1  1  1  1  1  1  1  1  1  1  1
      1  1  0  0  1  1  1  1  1  1  1  1  1  1  1  1  1  1  1  1
      1  1  1  1  1  1  1  1  1  1  1  1  1  0  0  1  1  1  1  1
      1  1  1  1  1  1  1  1  1  1  1  1  0  1  1  1  1  1  1  1
      1  1  1  1  1  1  0  0  1  1  0  0  1  1  1  1  1  1  1  1
      1  1  1  1  0  0  1  1  1  1  1  1  1  1  1  1  1  1  1  1
      1  1  1  1  1  1  1  1  1  1  0  0  1  1  1  1  1  1  1  1
      1  1  0  0  1  1  1  1  1  1  1  1  0  0  1  1  1  1  1  1
      1  1  1  1  1  1  1  1  1  1  1  1  1  1  1  1  1  1  1  1
      1  1  1  1  1  1  1  1  1  1  1  1  1  1  1  1  1  1  1  1
      1  1  1  1  1  1  1  1  1  1  1  1  1  1  1  1  1  1  1  1
      1  1  1  1  1  1  1  1  1  1  1  1  1  1  1  1  1  1  1  1
      1  1  1  1  1  1  1  1  1  0  0  1  1  1  1  1  1  1  1  1
      1  1  1  1  1  1  1  1  1  1  1  1  1  1  1  1  1  1  1  1