# File generated by Flopy version 3.9.1 on 02/09/2026 at 23:33:23.
BEGIN options
  BUDGET  FILEOUT  triangle_caseC.cbc
  HEAD  FILEOUT  triangle_caseC.hds
END options

BEGIN period  1
  SAVE  HEAD  LAST
  SAVE  BUDGET  LAST
  PRINT  BUDGET  LAST
END period  1

